65182
  -OEChem-04252609563D

 42 45  0     0  0  0  0  0  0999 V2000
    0.1802   -1.4603    0.1527 O   0  0  0  0  0  0  0  0  0  0  0  0
   -4.3480   -2.7170    0.3024 O   0  0  0  0  0  0  0  0  0  0  0  0
    4.7706   -0.0946   -0.0104 N   0  0  0  0  0  0  0  0  0  0  0  0
   -0.6813    1.2564   -0.1315 N   0  0  0  0  0  0  0  0  0  0  0  0
    3.3997    0.2353   -0.0393 C   0  0  0  0  0  0  0  0  0  0  0  0
    1.0837   -0.4326    0.0403 C   0  0  0  0  0  0  0  0  0  0  0  0
   -1.5554    0.3029   -0.0273 C   0  0  0  0  0  0  0  0  0  0  0  0
    0.6746    0.8972   -0.0988 C   0  0  0  0  0  0  0  0  0  0  0  0
    5.7776    0.9416   -0.1245 C   0  0  0  0  0  0  0  0  0  0  0  0
    5.1906   -1.4729    0.1480 C   0  0  0  0  0  0  0  0  0  0  0  0
    2.4384   -0.7673    0.0706 C   0  0  0  0  0  0  0  0  0  0  0  0
   -3.0043    0.6168   -0.0547 C   0  0  0  0  0  0  0  0  0  0  0  0
   -1.1663   -1.1276    0.1226 C   0  0  0  0  0  0  0  0  0  0  0  0
    3.0057    1.5653   -0.1785 C   0  0  0  0  0  0  0  0  0  0  0  0
   -3.9543   -0.4020    0.0563 C   0  0  0  0  0  0  0  0  0  0  0  0
    1.6491    1.8946   -0.2081 C   0  0  0  0  0  0  0  0  0  0  0  0
   -2.0865   -2.0895    0.2276 C   0  0  0  0  0  0  0  0  0  0  0  0
   -3.5342   -1.8070    0.2030 C   0  0  0  0  0  0  0  0  0  0  0  0
    6.1305    1.4804    1.2484 C   0  0  0  0  0  0  0  0  0  0  0  0
    5.3105   -2.1414   -1.2081 C   0  0  0  0  0  0  0  0  0  0  0  0
   -3.4304    1.9449   -0.1927 C   0  0  0  0  0  0  0  0  0  0  0  0
   -5.3207   -0.0965    0.0294 C   0  0  0  0  0  0  0  0  0  0  0  0
   -4.7932    2.2459   -0.2191 C   0  0  0  0  0  0  0  0  0  0  0  0
   -5.7365    1.2272   -0.1083 C   0  0  0  0  0  0  0  0  0  0  0  0
    6.6911    0.5058   -0.5512 H   0  0  0  0  0  0  0  0  0  0  0  0
    5.5191    1.7391   -0.8283 H   0  0  0  0  0  0  0  0  0  0  0  0
    6.1857   -1.4927    0.6125 H   0  0  0  0  0  0  0  0  0  0  0  0
    4.5704   -2.0503    0.8410 H   0  0  0  0  0  0  0  0  0  0  0  0
    2.6807   -1.8199    0.1634 H   0  0  0  0  0  0  0  0  0  0  0  0
    3.6996    2.3950   -0.2507 H   0  0  0  0  0  0  0  0  0  0  0  0
    1.3560    2.9365   -0.3132 H   0  0  0  0  0  0  0  0  0  0  0  0
   -1.7932   -3.1289    0.3364 H   0  0  0  0  0  0  0  0  0  0  0  0
    6.4835    0.6831    1.9112 H   0  0  0  0  0  0  0  0  0  0  0  0
    5.2708    1.9561    1.7308 H   0  0  0  0  0  0  0  0  0  0  0  0
    6.9266    2.2274    1.1678 H   0  0  0  0  0  0  0  0  0  0  0  0
    4.3477   -2.1837   -1.7267 H   0  0  0  0  0  0  0  0  0  0  0  0
    6.0126   -1.6053   -1.8555 H   0  0  0  0  0  0  0  0  0  0  0  0
    5.6756   -3.1668   -1.0927 H   0  0  0  0  0  0  0  0  0  0  0  0
   -2.7208    2.7631   -0.2815 H   0  0  0  0  0  0  0  0  0  0  0  0
   -6.0749   -0.8743    0.1142 H   0  0  0  0  0  0  0  0  0  0  0  0
   -5.1183    3.2768   -0.3263 H   0  0  0  0  0  0  0  0  0  0  0  0
   -6.7963    1.4640   -0.1291 H   0  0  0  0  0  0  0  0  0  0  0  0
  1  6  1  0  0  0  0
  1 13  1  0  0  0  0
  2 18  2  0  0  0  0
  3  5  1  0  0  0  0
  3  9  1  0  0  0  0
  3 10  1  0  0  0  0
  4  7  2  0  0  0  0
  4  8  1  0  0  0  0
  5 11  2  0  0  0  0
  5 14  1  0  0  0  0
  6  8  2  0  0  0  0
  6 11  1  0  0  0  0
  7 12  1  0  0  0  0
  7 13  1  0  0  0  0
  8 16  1  0  0  0  0
  9 19  1  0  0  0  0
  9 25  1  0  0  0  0
  9 26  1  0  0  0  0
 10 20  1  0  0  0  0
 10 27  1  0  0  0  0
 10 28  1  0  0  0  0
 11 29  1  0  0  0  0
 12 15  1  0  0  0  0
 12 21  2  0  0  0  0
 13 17  2  0  0  0  0
 14 16  2  0  0  0  0
 14 30  1  0  0  0  0
 15 18  1  0  0  0  0
 15 22  2  0  0  0  0
 16 31  1  0  0  0  0
 17 18  1  0  0  0  0
 17 32  1  0  0  0  0
 19 33  1  0  0  0  0
 19 34  1  0  0  0  0
 19 35  1  0  0  0  0
 20 36  1  0  0  0  0
 20 37  1  0  0  0  0
 20 38  1  0  0  0  0
 21 23  1  0  0  0  0
 21 39  1  0  0  0  0
 22 24  1  0  0  0  0
 22 40  1  0  0  0  0
 23 24  2  0  0  0  0
 23 41  1  0  0  0  0
 24 42  1  0  0  0  0
M  END
> <PUBCHEM_COMPOUND_CID>
65182

> <PUBCHEM_CONFORMER_RMSD>
0.6

> <PUBCHEM_CONFORMER_DIVERSEORDER>
3
1
2

> <PUBCHEM_MMFF94_PARTIAL_CHARGES>
30
1 -0.16
10 0.37
11 -0.15
12 0.09
13 0.09
14 -0.15
15 0.09
16 -0.15
17 -0.14
18 0.47
2 -0.57
21 -0.15
22 -0.15
23 -0.15
24 -0.15
29 0.15
3 -0.84
30 0.15
31 0.15
32 0.15
39 0.15
4 -0.63
40 0.15
41 0.15
42 0.15
5 0.1
6 0.08
7 0.35
8 0.18
9 0.37

> <PUBCHEM_EFFECTIVE_ROTOR_COUNT>
3

> <PUBCHEM_PHARMACOPHORE_FEATURES>
8
1 1 acceptor
1 2 acceptor
1 3 cation
1 4 acceptor
6 1 4 6 7 8 13 rings
6 12 15 21 22 23 24 rings
6 5 6 8 11 14 16 rings
6 7 12 13 15 17 18 rings

> <PUBCHEM_HEAVY_ATOM_COUNT>
24

> <PUBCHEM_ATOM_DEF_STEREO_COUNT>
0

> <PUBCHEM_ATOM_UDEF_STEREO_COUNT>
0

> <PUBCHEM_BOND_DEF_STEREO_COUNT>
0

> <PUBCHEM_BOND_UDEF_STEREO_COUNT>
0

> <PUBCHEM_ISOTOPIC_ATOM_COUNT>
0

> <PUBCHEM_COMPONENT_COUNT>
1

> <PUBCHEM_CACTVS_TAUTO_COUNT>
1

> <PUBCHEM_CONFORMER_ID>
0000FE9E00000003

> <PUBCHEM_MMFF94_ENERGY>
79.9649

> <PUBCHEM_FEATURE_SELFOVERLAP>
40.688

> <PUBCHEM_SHAPE_FINGERPRINT>
10 15 18259984907335512072
10411042 1 17904484348903596515
10835480 77 18343014502274492664
11578080 2 13900812634959336249
12107183 9 17901376793053961736
12236239 1 17989203720502432981
12403259 226 18268427017964514713
12403259 415 18130503140777307104
12616971 3 16660646275861375374
12838862 33 18263063488965684685
13073987 5 18335699464225649082
13533116 47 17774721970551098994
13583140 156 17702940456309201528
14341114 176 18410860944812149713
14420673 8 18336268920849100506
14790565 3 18334580144045127932
15042514 8 18263369260598782139
15183329 4 18336265656668193590
15196674 1 18409449210562976358
15788980 27 18187369826204420074
17492 89 18191872429737566219
17844677 252 18410582794503954114
1813 80 17022621975046335764
200 152 17917710214647238475
21033648 29 17917133005465815736
21065198 57 18338799025736724024
21130935 74 18273498961607804203
21236236 1 18410854387003704687
21267235 1 18335710451047241707
21279426 13 18339081484456131102
21421861 104 17677318404352277858
21859007 373 17896300442300655229
2215653 11 18272371936608856270
23402539 116 18413102870833638349
23559900 14 18341607148596627185
3004659 81 18261679182340467510
335352 9 18409168775300713117
34797466 226 17561370608130578356
34934 24 18409162195120872842
350125 39 18336830891607688781
3545911 37 18410856551545896049
404807 14 16763686732859834646
4073 2 18187368770233484850
4214541 1 18409167714412310949
5104073 3 18411136931226669906
5283173 99 18410573951055957192
559249 180 18335980882993264275
59755656 215 18337392617305449127
59755656 520 16732702757829938659
6138700 20 18265337201201373630
633830 44 17385725841295054272
67856867 119 18116996783118720012
7226269 152 18131352964961689993
9709674 26 18264213671783915635
9995097 60 18341894108441253140

> <PUBCHEM_SHAPE_MULTIPOLES>
472.21
14.96
2.58
0.75
7.68
0.62
0
-1.53
-0.37
-0.97
0.06
0.71
0.03
1.38

> <PUBCHEM_SHAPE_SELFOVERLAP>
1046.279

> <PUBCHEM_SHAPE_VOLUME>
250.1

> <PUBCHEM_COORDINATE_TYPE>
2
5
10

$$$$
