@<TRIPOS>MOLECULE
QUC
   42    45     1     0     0
SMALL
bcc


@<TRIPOS>ATOM
      1 O1           0.1800    -1.4600     0.1530 os         1 QUC      -0.389800
      2 O2          -4.3480    -2.7170     0.3020 o          1 QUC      -0.538100
      3 N1           4.7710    -0.0950    -0.0100 nh         1 QUC      -0.689000
      4 N2          -0.6810     1.2560    -0.1320 nc         1 QUC      -0.583000
      5 C1           3.4000     0.2350    -0.0390 ca         1 QUC       0.253600
      6 C2           1.0840    -0.4330     0.0400 ca         1 QUC       0.303700
      7 C3          -1.5550     0.3030    -0.0270 cd         1 QUC       0.362500
      8 C4           0.6750     0.8970    -0.0990 ca         1 QUC       0.175300
      9 C5           5.7780     0.9420    -0.1240 c3         1 QUC       0.218800
     10 C6           5.1910    -1.4730     0.1480 c3         1 QUC       0.218800
     11 C7           2.4380    -0.7670     0.0710 ca         1 QUC      -0.304300
     12 C8          -3.0040     0.6170    -0.0550 ca         1 QUC      -0.108500
     13 C9          -1.1660    -1.1280     0.1230 cd         1 QUC       0.211400
     14 C10          3.0060     1.5650    -0.1780 ca         1 QUC      -0.232000
     15 C11         -3.9540    -0.4020     0.0560 ca         1 QUC      -0.150600
     16 C12          1.6490     1.8950    -0.2080 ca         1 QUC      -0.075300
     17 C13         -2.0870    -2.0900     0.2280 cc         1 QUC      -0.276200
     18 C14         -3.5340    -1.8070     0.2030 c          1 QUC       0.586900
     19 C15          6.1300     1.4800     1.2480 c3         1 QUC      -0.121100
     20 C16          5.3110    -2.1410    -1.2080 c3         1 QUC      -0.121100
     21 C17         -3.4300     1.9450    -0.1930 ca         1 QUC      -0.105000
     22 C18         -5.3210    -0.0970     0.0290 ca         1 QUC      -0.081000
     23 C19         -4.7930     2.2460    -0.2190 ca         1 QUC      -0.115000
     24 C20         -5.7370     1.2270    -0.1080 ca         1 QUC      -0.132000
     25 H1           6.6910     0.5060    -0.5510 h1         1 QUC       0.051950
     26 H2           5.5190     1.7390    -0.8280 h1         1 QUC       0.051950
     27 H3           6.1860    -1.4930     0.6130 h1         1 QUC       0.051950
     28 H4           4.5700    -2.0500     0.8410 h1         1 QUC       0.051950
     29 H5           2.6810    -1.8200     0.1630 ha         1 QUC       0.159000
     30 H6           3.7000     2.3950    -0.2510 ha         1 QUC       0.142000
     31 H7           1.3560     2.9370    -0.3130 ha         1 QUC       0.152000
     32 H8          -1.7930    -3.1290     0.3360 ha         1 QUC       0.170000
     33 H9           6.4840     0.6830     1.9110 hc         1 QUC       0.044867
     34 H10          5.2710     1.9560     1.7310 hc         1 QUC       0.044867
     35 H11          6.9270     2.2270     1.1680 hc         1 QUC       0.044867
     36 H12          4.3480    -2.1840    -1.7270 hc         1 QUC       0.044867
     37 H13          6.0130    -1.6050    -1.8550 hc         1 QUC       0.044867
     38 H14          5.6760    -3.1670    -1.0930 hc         1 QUC       0.044867
     39 H15         -2.7210     2.7630    -0.2810 ha         1 QUC       0.156000
     40 H16         -6.0750    -0.8740     0.1140 ha         1 QUC       0.160000
     41 H17         -5.1180     3.2770    -0.3260 ha         1 QUC       0.137000
     42 H18         -6.7960     1.4640    -0.1290 ha         1 QUC       0.139000
@<TRIPOS>BOND
     1     1     6 1   
     2     1    13 1   
     3     2    18 2   
     4     3     5 1   
     5     3     9 1   
     6     3    10 1   
     7     4     7 2   
     8     4     8 1   
     9     5    11 ar  
    10     5    14 ar  
    11     6     8 ar  
    12     6    11 ar  
    13     7    12 1   
    14     7    13 1   
    15     8    16 ar  
    16     9    19 1   
    17     9    25 1   
    18     9    26 1   
    19    10    20 1   
    20    10    27 1   
    21    10    28 1   
    22    11    29 1   
    23    12    15 ar  
    24    12    21 ar  
    25    13    17 2   
    26    14    16 ar  
    27    14    30 1   
    28    15    18 1   
    29    15    22 ar  
    30    16    31 1   
    31    17    18 1   
    32    17    32 1   
    33    19    33 1   
    34    19    34 1   
    35    19    35 1   
    36    20    36 1   
    37    20    37 1   
    38    20    38 1   
    39    21    23 ar  
    40    21    39 1   
    41    22    24 ar  
    42    22    40 1   
    43    23    24 ar  
    44    23    41 1   
    45    24    42 1   
@<TRIPOS>SUBSTRUCTURE
     1 QUC         1 TEMP              0 ****  ****    0 ROOT
