@<TRIPOS>MOLECULE
DMS
   10     9     1     0     0
SMALL
bcc


@<TRIPOS>ATOM
      1 S1           0.1540    -0.3710     0.0000 s4         1 DMS       0.268600
      2 O1           1.3900     0.3310     0.0010 o          1 DMS      -0.506200
      3 C1          -0.8640     0.1960     1.3890 c3         1 DMS      -0.130800
      4 C2          -0.8620     0.1960    -1.3900 c3         1 DMS      -0.130800
      5 H1          -0.3810    -0.0730     2.3280 h1         1 DMS       0.083367
      6 H2          -0.9780     1.2790     1.3370 h1         1 DMS       0.083367
      7 H3          -1.8450    -0.2750     1.3360 h1         1 DMS       0.083367
      8 H4          -0.3780    -0.0720    -2.3280 h1         1 DMS       0.083367
      9 H5          -1.8430    -0.2750    -1.3390 h1         1 DMS       0.083367
     10 H6          -0.9770     1.2790    -1.3380 h1         1 DMS       0.083367
@<TRIPOS>BOND
     1     1     2 2   
     2     1     3 1   
     3     1     4 1   
     4     3     5 1   
     5     3     6 1   
     6     3     7 1   
     7     4     8 1   
     8     4     9 1   
     9     4    10 1   
@<TRIPOS>SUBSTRUCTURE
     1 DMS         1 TEMP              0 ****  ****    0 ROOT
