@<TRIPOS>MOLECULE
PEN
   36    40     1     0     0
SMALL
No Charge or Current Charge


@<TRIPOS>ATOM
      1 C1          10.4330    29.0730    63.2440 ca         1 PEN      -0.107564
      2 C2           9.4480    29.0780    64.2630 ca         1 PEN      -0.076455
      3 C3          11.6770    28.3440    63.4760 ca         1 PEN      -0.102391
      4 C4          10.2620    29.7530    62.0310 ca         1 PEN      -0.016896
      5 C5           9.6440    28.4190    65.4640 ca         1 PEN      -0.049477
      6 H6           8.6340    29.5460    64.1180 ha         1 PEN       0.235866
      7 C7          11.8470    27.6670    64.7000 ca         1 PEN      -0.079532
      8 C8          12.6530    28.3390    62.4720 ca         1 PEN      -0.016763
      9 C9          11.2380    29.7480    61.0270 ca         1 PEN      -0.101939
     10 H10          9.4480    30.2260    61.9000 ha         1 PEN       0.234954
     11 C11          8.6600    28.4360    66.5010 ca         1 PEN      -0.178571
     12 C12         10.8750    27.6950    65.6900 ca         1 PEN      -0.043280
     13 H13         12.6490    27.1800    64.8520 ha         1 PEN       0.235914
     14 H14         13.4660    27.8660    62.6030 ha         1 PEN       0.234991
     15 C15         12.4820    29.0190    61.2590 ca         1 PEN      -0.107311
     16 C16         11.0680    30.4250    59.8030 ca         1 PEN      -0.080367
     17 C17          8.8710    27.7920    67.6730 ca         1 PEN      -0.159866
     18 H18          7.8450    28.9050    66.3650 ha         1 PEN       0.233004
     19 C19         11.0460    27.0350    66.9440 ca         1 PEN      -0.181720
     20 C20         13.4660    29.0140    60.2400 ca         1 PEN      -0.076828
     21 C21         12.0400    30.3980    58.8130 ca         1 PEN      -0.042949
     22 H22         10.2660    30.9130    59.6510 ha         1 PEN       0.235810
     23 C23         10.0890    27.0780    67.9020 ca         1 PEN      -0.155099
     24 H24          8.2040    27.8160    68.3500 ha         1 PEN       0.239233
     25 H25         11.8490    26.5540    67.1100 ha         1 PEN       0.232009
     26 H26         14.2810    28.5470    60.3850 ha         1 PEN       0.235712
     27 C27         13.2710    29.6730    59.0400 ca         1 PEN      -0.049521
     28 C28         11.8680    31.0580    57.5590 ca         1 PEN      -0.182021
     29 H29         10.2270    26.6330    68.7300 ha         1 PEN       0.240106
     30 C30         14.2550    29.6570    58.0020 ca         1 PEN      -0.178447
     31 C31         12.8260    31.0150    56.6010 ca         1 PEN      -0.155002
     32 H32         11.0660    31.5390    57.3940 ha         1 PEN       0.232223
     33 C33         14.0440    30.3000    56.8300 ca         1 PEN      -0.160029
     34 H34         15.0700    29.1880    58.1390 ha         1 PEN       0.232810
     35 H35         12.6880    31.4600    55.7730 ha         1 PEN       0.240065
     36 H36         14.7100    30.2770    56.1540 ha         1 PEN       0.239331
@<TRIPOS>BOND
     1     1     2 ar  
     2     1     3 ar  
     3     1     4 ar  
     4     2     5 ar  
     5     2     6 1   
     6     3     7 ar  
     7     3     8 ar  
     8     4     9 ar  
     9     4    10 1   
    10     5    11 ar  
    11     5    12 ar  
    12     7    12 ar  
    13     7    13 1   
    14     8    14 1   
    15     8    15 ar  
    16     9    15 ar  
    17     9    16 ar  
    18    11    17 ar  
    19    11    18 1   
    20    12    19 ar  
    21    15    20 ar  
    22    16    21 ar  
    23    16    22 1   
    24    17    23 ar  
    25    17    24 1   
    26    19    23 ar  
    27    19    25 1   
    28    20    26 1   
    29    20    27 ar  
    30    21    27 ar  
    31    21    28 ar  
    32    23    29 1   
    33    27    30 ar  
    34    28    31 ar  
    35    28    32 1   
    36    30    33 ar  
    37    30    34 1   
    38    31    33 ar  
    39    31    35 1   
    40    33    36 1   
@<TRIPOS>SUBSTRUCTURE
     1 PEN         1 TEMP              0 ****  ****    0 ROOT
