@<TRIPOS>MOLECULE
ACE
    6     5     1     0     0
SMALL
bcc


@<TRIPOS>ATOM
      1 N1           1.2610     0.0000     0.0000 n1         1 ACE      -0.375800
      2 C1          -1.3610     0.0000     0.0000 c3         1 ACE      -0.045000
      3 C2           0.1010     0.0000     0.0000 c1         1 ACE       0.208700
      4 H1          -1.7500    -0.8300     0.5970 hc         1 ACE       0.070700
      5 H2          -1.7500    -0.1020    -1.0180 hc         1 ACE       0.070700
      6 H3          -1.7500     0.9320     0.4200 hc         1 ACE       0.070700
@<TRIPOS>BOND
     1     1     3 3   
     2     2     3 1   
     3     2     4 1   
     4     2     5 1   
     5     2     6 1   
@<TRIPOS>SUBSTRUCTURE
     1 ACE         1 TEMP              0 ****  ****    0 ROOT
