@<TRIPOS>MOLECULE
PEN
   36    40     1     0     0
SMALL
bcc


@<TRIPOS>ATOM
      1 C1          10.4380     3.4490     7.2950 ca         1 PEN      -0.029000
      2 C2           9.4460     2.8770     8.1270 ca         1 PEN      -0.107000
      3 C3          10.2580     3.5510     5.9070 ca         1 PEN      -0.107000
      4 C4          11.6680     3.9370     7.8990 ca         1 PEN      -0.029000
      5 C5           9.6240     2.7760     9.5020 ca         1 PEN      -0.032000
      6 H6           8.6400     2.5560     7.7370 ha         1 PEN       0.134000
      7 C7          11.2390     4.1080     5.0770 ca         1 PEN      -0.029000
      8 H8           9.4450     3.2340     5.5350 ha         1 PEN       0.135000
      9 C9          11.8250     3.8180     9.2910 ca         1 PEN      -0.107000
     10 C10         12.6490     4.4940     7.0680 ca         1 PEN      -0.107000
     11 C11          8.6280     2.1910    10.3650 ca         1 PEN      -0.118000
     12 C12         10.8490     3.2520    10.1000 ca         1 PEN      -0.032000
     13 C13         11.0830     4.2280     3.6850 ca         1 PEN      -0.107000
     14 C14         12.4700     4.5960     5.6810 ca         1 PEN      -0.029000
     15 H15         12.6260     4.1350     9.6910 ha         1 PEN       0.134000
     16 H16         13.4630     4.8110     7.4410 ha         1 PEN       0.135000
     17 C17          8.8260     2.0930    11.7000 ca         1 PEN      -0.126000
     18 H18          7.8180     1.8670     9.9890 ha         1 PEN       0.132000
     19 C19         11.0130     3.1270    11.5230 ca         1 PEN      -0.118000
     20 H20         10.2810     3.9100     3.2840 ha         1 PEN       0.134000
     21 C21         12.0590     4.7930     2.8750 ca         1 PEN      -0.032000
     22 C22         13.4620     5.1680     4.8490 ca         1 PEN      -0.107000
     23 C23         10.0340     2.5760    12.2850 ca         1 PEN      -0.126000
     24 H24          8.1580     1.7020    12.2500 ha         1 PEN       0.132000
     25 H25         11.8120     3.4330    11.9350 ha         1 PEN       0.132000
     26 C26         13.2830     5.2690     3.4740 ca         1 PEN      -0.032000
     27 C27         11.8950     4.9180     1.4530 ca         1 PEN      -0.118000
     28 H28         14.2670     5.4890     5.2380 ha         1 PEN       0.134000
     29 H29         10.1550     2.5110    13.2250 ha         1 PEN       0.132000
     30 C30         14.2790     5.8550     2.6110 ca         1 PEN      -0.118000
     31 H31         11.0950     4.6120     1.0410 ha         1 PEN       0.132000
     32 C32         12.8740     5.4690     0.6910 ca         1 PEN      -0.126000
     33 C33         14.0810     5.9520     1.2760 ca         1 PEN      -0.126000
     34 H34         15.0890     6.1790     2.9860 ha         1 PEN       0.132000
     35 H35         12.7530     5.5340    -0.2500 ha         1 PEN       0.132000
     36 H36         14.7500     6.3440     0.7260 ha         1 PEN       0.132000
@<TRIPOS>BOND
     1     1     2 ar  
     2     1     3 ar  
     3     1     4 ar  
     4     2     5 ar  
     5     2     6 1   
     6     3     7 ar  
     7     3     8 1   
     8     4     9 ar  
     9     4    10 ar  
    10     5    11 ar  
    11     5    12 ar  
    12     7    13 ar  
    13     7    14 ar  
    14     9    12 ar  
    15     9    15 1   
    16    10    14 ar  
    17    10    16 1   
    18    11    17 ar  
    19    11    18 1   
    20    12    19 ar  
    21    13    20 1   
    22    13    21 ar  
    23    14    22 ar  
    24    17    23 ar  
    25    17    24 1   
    26    19    23 ar  
    27    19    25 1   
    28    21    26 ar  
    29    21    27 ar  
    30    22    26 ar  
    31    22    28 1   
    32    23    29 1   
    33    26    30 ar  
    34    27    31 1   
    35    27    32 ar  
    36    30    33 ar  
    37    30    34 1   
    38    32    33 ar  
    39    32    35 1   
    40    33    36 1   
@<TRIPOS>SUBSTRUCTURE
     1 PEN         1 TEMP              0 ****  ****    0 ROOT
