@<TRIPOS>MOLECULE
PEN
 36 40 1 0 0
SMALL
USER_CHARGES


@<TRIPOS>ATOM
      1 C1         10.4375    3.4491    7.2946 C.ar        1 PEN         0.0000
      2 C2          9.4456    2.8775    8.1268 C.ar        1 PEN         0.0000
      3 C3         10.2581    3.5510    5.9072 C.ar        1 PEN         0.0000
      4 C4         11.6683    3.9370    7.8991 C.ar        1 PEN         0.0000
      5 C5          9.6242    2.7764    9.5015 C.ar        1 PEN         0.0000
      6 H6          8.6403    2.5564    7.7374 H           1 PEN         0.0000
      7 C7         11.2393    4.1083    5.0765 C.ar        1 PEN         0.0000
      8 H8          9.4446    3.2338    5.5347 H           1 PEN         0.0000
      9 C9         11.8247    3.8176    9.2907 C.ar        1 PEN         0.0000
     10 C10        12.6495    4.4944    7.0683 C.ar        1 PEN         0.0000
     11 C11         8.6282    2.1906   10.3646 C.ar        1 PEN         0.0000
     12 C12        10.8488    3.2523   10.1004 C.ar        1 PEN         0.0000
     13 C13        11.0828    4.2278    3.6848 C.ar        1 PEN         0.0000
     14 C14        12.4701    4.5963    5.6809 C.ar        1 PEN         0.0000
     15 H15        12.6261    4.1352    9.6913 H           1 PEN         0.0000
     16 H16        13.4630    4.8115    7.4408 H           1 PEN         0.0000
     17 C17         8.8262    2.0934   11.7000 C.ar        1 PEN         0.0000
     18 H18         7.8184    1.8666    9.9893 H           1 PEN         0.0000
     19 C19        11.0126    3.1271   11.5229 C.ar        1 PEN         0.0000
     20 H20        10.2815    3.9102    3.2842 H           1 PEN         0.0000
     21 C21        12.0588    4.7931    2.8752 C.ar        1 PEN         0.0000
     22 C22        13.4620    5.1679    4.8487 C.ar        1 PEN         0.0000
     23 C23        10.0337    2.5760   12.2848 C.ar        1 PEN         0.0000
     24 H24         8.1578    1.7016   12.2496 H           1 PEN         0.0000
     25 H25        11.8124    3.4335   11.9348 H           1 PEN         0.0000
     26 C26        13.2833    5.2690    3.4740 C.ar        1 PEN         0.0000
     27 C27        11.8949    4.9183    1.4526 C.ar        1 PEN         0.0000
     28 H28        14.2673    5.4890    5.2381 H           1 PEN         0.0000
     29 H29        10.1548    2.5111   13.2252 H           1 PEN         0.0000
     30 C30        14.2793    5.8548    2.6109 C.ar        1 PEN         0.0000
     31 H31        11.0951    4.6119    1.0407 H           1 PEN         0.0000
     32 C32        12.8739    5.4694    0.6907 C.ar        1 PEN         0.0000
     33 C33        14.0814    5.9520    1.2755 C.ar        1 PEN         0.0000
     34 H34        15.0891    6.1788    2.9862 H           1 PEN         0.0000
     35 H35        12.7528    5.5343   -0.2497 H           1 PEN         0.0000
     36 H36        14.7498    6.3437    0.7259 H           1 PEN         0.0000
@<TRIPOS>BOND
     1    1    2     ar
     2    1    3     ar
     3    1    4     ar
     4    2    5     ar
     5    2    6     1
     6    3    7     ar
     7    3    8     1
     8    4    9     ar
     9    4   10     ar
    10    5   11     ar
    11    5   12     ar
    12    7   13     ar
    13    7   14     ar
    14    9   12     ar
    15    9   15     1
    16   10   14     ar
    17   10   16     1
    18   11   17     ar
    19   11   18     1
    20   12   19     ar
    21   13   20     1
    22   13   21     ar
    23   14   22     ar
    24   17   23     ar
    25   17   24     1
    26   19   23     ar
    27   19   25     1
    28   21   26     ar
    29   21   27     ar
    30   22   26     ar
    31   22   28     1
    32   23   29     1
    33   26   30     ar
    34   27   31     1
    35   27   32     ar
    36   30   33     ar
    37   30   34     1
    38   32   33     ar
    39   32   35     1
    40   33   36     1
@<TRIPOS>SUBSTRUCTURE
     1 PEN             1 TEMP              0 ****  ****    0 ROOT
