@<TRIPOS>MOLECULE
MOL
 36 40 1 0 0
SMALL
USER_CHARGES


@<TRIPOS>ATOM
      1 C1          7.7840    9.4379    5.6780 C.ar        1 MOL         0.0000
      2 C2          6.7997    9.4428    6.6971 C.ar        1 MOL         0.0000
      3 C3          9.0281    8.7087    5.9100 C.ar        1 MOL         0.0000
      4 C4          7.6135   10.1180    4.4649 C.ar        1 MOL         0.0000
      5 C5          6.9953    8.7835    7.8976 C.ar        1 MOL         0.0000
      6 H6          5.9854    9.9104    6.5523 H           1 MOL         0.0000
      7 C7          9.1986    8.0320    7.1343 C.ar        1 MOL         0.0000
      8 C8         10.0039    8.7036    4.9063 C.ar        1 MOL         0.0000
      9 C9          8.5892   10.1128    3.4613 C.ar        1 MOL         0.0000
     10 H10         6.7998   10.5904    4.3342 H           1 MOL         0.0000
     11 C11         6.0111    8.8004    8.9350 C.ar        1 MOL         0.0000
     12 C12         8.2260    8.0592    8.1239 C.ar        1 MOL         0.0000
     13 H13         9.9998    7.5445    7.2861 H           1 MOL         0.0000
     14 H14        10.8175    8.2311    5.0370 H           1 MOL         0.0000
     15 C15         9.8333    9.3837    3.6932 C.ar        1 MOL         0.0000
     16 C16         8.4188   10.7895    2.2369 C.ar        1 MOL         0.0000
     17 C17         6.2223    8.1568   10.1073 C.ar        1 MOL         0.0000
     18 H18         5.1964    9.2692    8.7986 H           1 MOL         0.0000
     19 C19         8.3978    7.3993    9.3778 C.ar        1 MOL         0.0000
     20 C20        10.8177    9.3788    2.6741 C.ar        1 MOL         0.0000
     21 C21         9.3914   10.7623    1.2473 C.ar        1 MOL         0.0000
     22 H22         7.6176   11.2771    2.0851 H           1 MOL         0.0000
     23 C23         7.4401    7.4424   10.3364 C.ar        1 MOL         0.0000
     24 H24         5.5558    8.1801   10.7835 H           1 MOL         0.0000
     25 H25         9.2004    6.9182    9.5436 H           1 MOL         0.0000
     26 H26        11.6320    8.9111    2.8189 H           1 MOL         0.0000
     27 C27        10.6220   10.0380    1.4736 C.ar        1 MOL         0.0000
     28 C28         9.2195   11.4222   -0.0066 C.ar        1 MOL         0.0000
     29 H29         7.5785    6.9973   11.1644 H           1 MOL         0.0000
     30 C30        11.6063   10.0212    0.4362 C.ar        1 MOL         0.0000
     31 C31        10.1772   11.3791   -0.9652 C.ar        1 MOL         0.0000
     32 H32         8.4169   11.9033   -0.1724 H           1 MOL         0.0000
     33 C33        11.3951   10.6647   -0.7361 C.ar        1 MOL         0.0000
     34 H34        12.4210    9.5523    0.5726 H           1 MOL         0.0000
     35 H35        10.0388   11.8242   -1.7932 H           1 MOL         0.0000
     36 H36        12.0616   10.6415   -1.4122 H           1 MOL         0.0000
@<TRIPOS>BOND
     1    1    2     ar
     2    1    3     ar
     3    1    4     ar
     4    2    5     ar
     5    2    6     1
     6    3    7     ar
     7    3    8     ar
     8    4    9     ar
     9    4   10     1
    10    5   11     ar
    11    5   12     ar
    12    7   12     ar
    13    7   13     1
    14    8   14     1
    15    8   15     ar
    16    9   15     ar
    17    9   16     ar
    18   11   17     ar
    19   11   18     1
    20   12   19     ar
    21   15   20     ar
    22   16   21     ar
    23   16   22     1
    24   17   23     ar
    25   17   24     1
    26   19   23     ar
    27   19   25     1
    28   20   26     1
    29   20   27     ar
    30   21   27     ar
    31   21   28     ar
    32   23   29     1
    33   27   30     ar
    34   28   31     ar
    35   28   32     1
    36   30   33     ar
    37   30   34     1
    38   31   33     ar
    39   31   35     1
    40   33   36     1
@<TRIPOS>SUBSTRUCTURE
     1 MOL             1 TEMP              0 ****  ****    0 ROOT
