@<TRIPOS>MOLECULE
PEN
 36 40 1 0 0
SMALL
USER_CHARGES


@<TRIPOS>ATOM
      1 C1         14.9582   37.0591   47.1486 C.ar        1 PEN         0.0000
      2 C2         14.8018   37.1785   45.7570 C.ar        1 PEN         0.0000
      3 C3         13.9770   36.5018   47.9794 C.ar        1 PEN         0.0000
      4 C4         16.1890   37.5471   47.7530 C.ar        1 PEN         0.0000
      5 H5         14.0004   36.8609   45.3564 H           1 PEN         0.0000
      6 C6         15.7777   37.7438   44.9473 C.ar        1 PEN         0.0000
      7 H7         13.1635   36.1846   47.6069 H           1 PEN         0.0000
      8 C8         14.1564   36.3998   49.3668 C.ar        1 PEN         0.0000
      9 C9         17.1809   38.1187   46.9209 C.ar        1 PEN         0.0000
     10 C10        16.3684   37.4451   49.1404 C.ar        1 PEN         0.0000
     11 C11        17.0022   38.2197   45.5461 C.ar        1 PEN         0.0000
     12 C12        15.6139   37.8691   43.5248 C.ar        1 PEN         0.0000
     13 C13        13.1645   35.8283   50.1989 C.ar        1 PEN         0.0000
     14 C14        15.3872   36.8878   49.9712 C.ar        1 PEN         0.0000
     15 H15        17.9862   38.4398   47.3103 H           1 PEN         0.0000
     16 H16        17.1819   37.7623   49.5130 H           1 PEN         0.0000
     17 C17        17.9983   38.8056   44.6830 C.ar        1 PEN         0.0000
     18 H18        14.8141   37.5627   43.1129 H           1 PEN         0.0000
     19 C19        16.5928   38.4202   42.7629 C.ar        1 PEN         0.0000
     20 C20        13.3432   35.7272   51.5737 C.ar        1 PEN         0.0000
     21 H21        12.3592   35.5071   49.8096 H           1 PEN         0.0000
     22 C22        15.5437   36.7684   51.3628 C.ar        1 PEN         0.0000
     23 C23        17.8003   38.9028   43.3476 C.ar        1 PEN         0.0000
     24 H24        18.8081   39.1296   45.0584 H           1 PEN         0.0000
     25 H25        16.4717   38.4851   41.8225 H           1 PEN         0.0000
     26 C26        12.3472   35.1413   52.4368 C.ar        1 PEN         0.0000
     27 C27        14.5677   36.2031   52.1725 C.ar        1 PEN         0.0000
     28 H28        16.3450   37.0860   51.7635 H           1 PEN         0.0000
     29 H29        18.4687   39.2945   42.7980 H           1 PEN         0.0000
     30 C30        12.5451   35.0441   53.7722 C.ar        1 PEN         0.0000
     31 H31        11.5374   34.8173   52.0615 H           1 PEN         0.0000
     32 C32        14.7316   36.0778   53.5951 C.ar        1 PEN         0.0000
     33 C33        13.7526   35.5267   54.3569 C.ar        1 PEN         0.0000
     34 H34        11.8767   34.6524   54.3218 H           1 PEN         0.0000
     35 H35        15.5314   36.3842   54.0069 H           1 PEN         0.0000
     36 H36        13.8737   35.4619   55.2973 H           1 PEN         0.0000
@<TRIPOS>BOND
     1    1    2     ar
     2    1    3     ar
     3    1    4     ar
     4    2    5     1
     5    2    6     ar
     6    3    7     1
     7    3    8     ar
     8    4    9     ar
     9    4   10     ar
    10    6   11     ar
    11    6   12     ar
    12    8   13     ar
    13    8   14     ar
    14    9   11     ar
    15    9   15     1
    16   10   14     ar
    17   10   16     1
    18   11   17     ar
    19   12   18     1
    20   12   19     ar
    21   13   20     ar
    22   13   21     1
    23   14   22     ar
    24   17   23     ar
    25   17   24     1
    26   19   23     ar
    27   19   25     1
    28   20   26     ar
    29   20   27     ar
    30   22   27     ar
    31   22   28     1
    32   23   29     1
    33   26   30     ar
    34   26   31     1
    35   27   32     ar
    36   30   33     ar
    37   30   34     1
    38   32   33     ar
    39   32   35     1
    40   33   36     1
@<TRIPOS>SUBSTRUCTURE
     1 PEN             1 TEMP              0 ****  ****    0 ROOT
