@<TRIPOS>MOLECULE
PEN
   36    40     1     0     0
SMALL
bcc


@<TRIPOS>ATOM
      1 C1          14.9580    37.0590    47.1490 ca         1 PEN      -0.029000
      2 C2          14.8020    37.1780    45.7570 ca         1 PEN      -0.107000
      3 C3          13.9770    36.5020    47.9790 ca         1 PEN      -0.107000
      4 C4          16.1890    37.5470    47.7530 ca         1 PEN      -0.029000
      5 H5          14.0000    36.8610    45.3560 ha         1 PEN       0.134000
      6 C6          15.7780    37.7440    44.9470 ca         1 PEN      -0.032000
      7 H7          13.1640    36.1850    47.6070 ha         1 PEN       0.135000
      8 C8          14.1560    36.4000    49.3670 ca         1 PEN      -0.029000
      9 C9          17.1810    38.1190    46.9210 ca         1 PEN      -0.107000
     10 C10         16.3680    37.4450    49.1400 ca         1 PEN      -0.107000
     11 C11         17.0020    38.2200    45.5460 ca         1 PEN      -0.032000
     12 C12         15.6140    37.8690    43.5250 ca         1 PEN      -0.118000
     13 C13         13.1650    35.8280    50.1990 ca         1 PEN      -0.107000
     14 C14         15.3870    36.8880    49.9710 ca         1 PEN      -0.029000
     15 H15         17.9860    38.4400    47.3100 ha         1 PEN       0.134000
     16 H16         17.1820    37.7620    49.5130 ha         1 PEN       0.135000
     17 C17         17.9980    38.8060    44.6830 ca         1 PEN      -0.118000
     18 H18         14.8140    37.5630    43.1130 ha         1 PEN       0.132000
     19 C19         16.5930    38.4200    42.7630 ca         1 PEN      -0.126000
     20 C20         13.3430    35.7270    51.5740 ca         1 PEN      -0.032000
     21 H21         12.3590    35.5070    49.8100 ha         1 PEN       0.134000
     22 C22         15.5440    36.7680    51.3630 ca         1 PEN      -0.107000
     23 C23         17.8000    38.9030    43.3480 ca         1 PEN      -0.126000
     24 H24         18.8080    39.1300    45.0580 ha         1 PEN       0.132000
     25 H25         16.4720    38.4850    41.8220 ha         1 PEN       0.132000
     26 C26         12.3470    35.1410    52.4370 ca         1 PEN      -0.118000
     27 C27         14.5680    36.2030    52.1720 ca         1 PEN      -0.032000
     28 H28         16.3450    37.0860    51.7640 ha         1 PEN       0.134000
     29 H29         18.4690    39.2940    42.7980 ha         1 PEN       0.132000
     30 C30         12.5450    35.0440    53.7720 ca         1 PEN      -0.126000
     31 H31         11.5370    34.8170    52.0620 ha         1 PEN       0.132000
     32 C32         14.7320    36.0780    53.5950 ca         1 PEN      -0.118000
     33 C33         13.7530    35.5270    54.3570 ca         1 PEN      -0.126000
     34 H34         11.8770    34.6520    54.3220 ha         1 PEN       0.132000
     35 H35         15.5310    36.3840    54.0070 ha         1 PEN       0.132000
     36 H36         13.8740    35.4620    55.2970 ha         1 PEN       0.132000
@<TRIPOS>BOND
     1     1     2 ar  
     2     1     3 ar  
     3     1     4 ar  
     4     2     5 1   
     5     2     6 ar  
     6     3     7 1   
     7     3     8 ar  
     8     4     9 ar  
     9     4    10 ar  
    10     6    11 ar  
    11     6    12 ar  
    12     8    13 ar  
    13     8    14 ar  
    14     9    11 ar  
    15     9    15 1   
    16    10    14 ar  
    17    10    16 1   
    18    11    17 ar  
    19    12    18 1   
    20    12    19 ar  
    21    13    20 ar  
    22    13    21 1   
    23    14    22 ar  
    24    17    23 ar  
    25    17    24 1   
    26    19    23 ar  
    27    19    25 1   
    28    20    26 ar  
    29    20    27 ar  
    30    22    27 ar  
    31    22    28 1   
    32    23    29 1   
    33    26    30 ar  
    34    26    31 1   
    35    27    32 ar  
    36    30    33 ar  
    37    30    34 1   
    38    32    33 ar  
    39    32    35 1   
    40    33    36 1   
@<TRIPOS>SUBSTRUCTURE
     1 PEN         1 TEMP              0 ****  ****    0 ROOT
