@<TRIPOS>MOLECULE
PEN
 36 40 1 0 0
SMALL
USER_CHARGES


@<TRIPOS>ATOM
      1 C1          8.7218   15.1862   34.7288 C.ar        1 PEN         0.0000
      2 C2          7.7375   15.1911   35.7479 C.ar        1 PEN         0.0000
      3 C3          9.9659   14.4570   34.9607 C.ar        1 PEN         0.0000
      4 C4          8.5512   15.8663   33.5157 C.ar        1 PEN         0.0000
      5 C5          7.9331   14.5318   36.9483 C.ar        1 PEN         0.0000
      6 H6          6.9232   15.6587   35.6031 H           1 PEN         0.0000
      7 C7         10.1364   13.7803   36.1851 C.ar        1 PEN         0.0000
      8 C8         10.9417   14.4519   33.9570 C.ar        1 PEN         0.0000
      9 C9          9.5270   15.8611   32.5120 C.ar        1 PEN         0.0000
     10 H10         7.7376   16.3387   33.3849 H           1 PEN         0.0000
     11 C11         6.9489   14.5487   37.9857 C.ar        1 PEN         0.0000
     12 C12         9.1638   13.8075   37.1747 C.ar        1 PEN         0.0000
     13 H13        10.9376   13.2928   36.3369 H           1 PEN         0.0000
     14 H14        11.7553   13.9794   34.0878 H           1 PEN         0.0000
     15 C15        10.7711   15.1320   32.7439 C.ar        1 PEN         0.0000
     16 C16         9.3566   16.5378   31.2877 C.ar        1 PEN         0.0000
     17 C17         7.1601   13.9051   39.1581 C.ar        1 PEN         0.0000
     18 H18         6.1342   15.0175   37.8494 H           1 PEN         0.0000
     19 C19         9.3356   13.1476   38.4285 C.ar        1 PEN         0.0000
     20 C20        11.7555   15.1271   31.7248 C.ar        1 PEN         0.0000
     21 C21        10.3292   16.5106   30.2981 C.ar        1 PEN         0.0000
     22 H22         8.5554   17.0254   31.1358 H           1 PEN         0.0000
     23 C23         8.3779   13.1907   39.3872 C.ar        1 PEN         0.0000
     24 H24         6.4936   13.9284   39.8342 H           1 PEN         0.0000
     25 H25        10.1382   12.6665   38.5944 H           1 PEN         0.0000
     26 H26        12.5698   14.6594   31.8696 H           1 PEN         0.0000
     27 C27        11.5598   15.7863   30.5244 C.ar        1 PEN         0.0000
     28 C28        10.1573   17.1705   29.0442 C.ar        1 PEN         0.0000
     29 H29         8.5163   12.7456   40.2151 H           1 PEN         0.0000
     30 C30        12.5441   15.7695   29.4870 C.ar        1 PEN         0.0000
     31 C31        11.1150   17.1274   28.0855 C.ar        1 PEN         0.0000
     32 H32         9.3547   17.6517   28.8783 H           1 PEN         0.0000
     33 C33        12.3329   16.4130   28.3146 C.ar        1 PEN         0.0000
     34 H34        13.3588   15.3006   29.6233 H           1 PEN         0.0000
     35 H35        10.9766   17.5725   27.2576 H           1 PEN         0.0000
     36 H36        12.9994   16.3898   27.6385 H           1 PEN         0.0000
@<TRIPOS>BOND
     1    1    2     ar
     2    1    3     ar
     3    1    4     ar
     4    2    5     ar
     5    2    6     1
     6    3    7     ar
     7    3    8     ar
     8    4    9     ar
     9    4   10     1
    10    5   11     ar
    11    5   12     ar
    12    7   12     ar
    13    7   13     1
    14    8   14     1
    15    8   15     ar
    16    9   15     ar
    17    9   16     ar
    18   11   17     ar
    19   11   18     1
    20   12   19     ar
    21   15   20     ar
    22   16   21     ar
    23   16   22     1
    24   17   23     ar
    25   17   24     1
    26   19   23     ar
    27   19   25     1
    28   20   26     1
    29   20   27     ar
    30   21   27     ar
    31   21   28     ar
    32   23   29     1
    33   27   30     ar
    34   28   31     ar
    35   28   32     1
    36   30   33     ar
    37   30   34     1
    38   31   33     ar
    39   31   35     1
    40   33   36     1
@<TRIPOS>SUBSTRUCTURE
     1 PEN             1 TEMP              0 ****  ****    0 ROOT
