@<TRIPOS>MOLECULE
BTB
   64    68     1     0     0
SMALL
bcc


@<TRIPOS>ATOM
      1 S1           0.9380     6.6410    70.5530 ss         1 BTB       0.081500
      2 C2           2.1030     6.0610    69.4080 cc         1 BTB      -0.081600
      3 C3           1.9970     6.1270    71.8510 ca         1 BTB      -0.071100
      4 C4           2.1150     6.0660    67.9450 ca         1 BTB      -0.030800
      5 C5           3.2350     5.5930    69.9640 cd         1 BTB      -0.084600
      6 C6           1.6760     6.1990    73.2240 ca         1 BTB      -0.086000
      7 C7           3.2030     5.6210    71.4130 ca         1 BTB      -0.025800
      8 C8           1.1530     6.4860    67.0170 ca         1 BTB      -0.094000
      9 C9           3.2850     5.4960    67.5040 ca         1 BTB      -0.065100
     10 S10          4.3840     4.9920    68.8040 ss         1 BTB       0.078500
     11 C11          2.6220     5.7940    74.1540 cp         1 BTB      -0.029000
     12 H12          0.8580     6.5460    73.4970 ha         1 BTB       0.142000
     13 C13          4.1400     5.1610    72.3640 ca         1 BTB      -0.097000
     14 C14          1.4320     6.2920    65.6590 ca         1 BTB      -0.126000
     15 H15          0.3510     6.8560    67.3120 ha         1 BTB       0.138000
     16 C16          3.5500     5.2300    66.1410 ca         1 BTB      -0.097000
     17 C17          3.8340     5.2400    73.7250 ca         1 BTB      -0.119000
     18 C18          2.3010     5.8010    75.6180 cp         1 BTB      -0.040000
     19 H19          4.9370     4.7780    72.0780 ha         1 BTB       0.139000
     20 C20          2.6020     5.6370    65.2290 ca         1 BTB      -0.067300
     21 H21          0.8440     6.6570    65.0390 ha         1 BTB       0.134000
     22 H22          4.3280     4.7890    65.8880 ha         1 BTB       0.138000
     23 H23          4.4590     4.9570    74.3530 ha         1 BTB       0.138000
     24 C24          1.3110     6.6310    76.1120 ca         1 BTB      -0.118000
     25 C25          2.9290     4.9710    76.5140 ca         1 BTB      -0.118000
     26 C26          2.7810     5.3300    63.7370 c3         1 BTB      -0.038100
     27 C27          0.9630     6.6520    77.4510 ca         1 BTB      -0.130000
     28 H28          0.8830     7.2300    75.5430 ha         1 BTB       0.135000
     29 C29          2.6060     5.0350    77.8860 ca         1 BTB      -0.130000
     30 H30          3.6160     4.4230    76.2100 ha         1 BTB       0.135000
     31 C31          3.9490     6.0430    63.0970 c3         1 BTB      -0.076400
     32 H32          2.8900     4.3670    63.6970 hc         1 BTB       0.049200
     33 H33          1.9450     5.5730    63.3090 hc         1 BTB       0.049200
     34 C34          1.6310     5.8560    78.3380 ca         1 BTB      -0.126000
     35 H35          0.2670     7.1830    77.7650 ha         1 BTB       0.132500
     36 H36          3.0490     4.4610    78.4690 ha         1 BTB       0.132500
     37 C37          4.1680     5.5330    61.6410 c3         1 BTB      -0.079400
     38 H38          3.8110     6.9990    63.0140 hc         1 BTB       0.045200
     39 H39          4.7840     5.8820    63.5630 hc         1 BTB       0.045200
     40 H40          1.4250     5.8800    79.2440 ha         1 BTB       0.132000
     41 C41          5.3700     6.1220    60.9530 c3         1 BTB      -0.079400
     42 H42          3.3470     5.7260    61.1620 hc         1 BTB       0.039700
     43 H43          4.2770     4.5730    61.7210 hc         1 BTB       0.039700
     44 C44          5.5500     5.5860    59.5060 c3         1 BTB      -0.079400
     45 H45          5.2530     7.0800    60.8610 hc         1 BTB       0.040700
     46 H46          6.1880     5.9430    61.4440 hc         1 BTB       0.040700
     47 C47          6.7820     6.1150    58.7970 c3         1 BTB      -0.079400
     48 H48          4.7270     5.7680    59.0270 hc         1 BTB       0.039700
     49 H49          5.6550     4.6270    59.6100 hc         1 BTB       0.039700
     50 C50          6.9030     5.5420    57.3710 c3         1 BTB      -0.079400
     51 H51          6.6600     7.0720    58.6910 hc         1 BTB       0.039700
     52 H52          7.5950     5.9460    59.2980 hc         1 BTB       0.039700
     53 H53          6.0850     5.7070    56.8770 hc         1 BTB       0.039700
     54 H54          7.0280     4.5860    57.4820 hc         1 BTB       0.039700
     55 C55          8.0580     6.1440    56.6190 c3         1 BTB      -0.079400
     56 C56          8.2120     5.5470    55.2040 c3         1 BTB      -0.080400
     57 H57          7.9750     7.1070    56.5340 hc         1 BTB       0.039700
     58 H58          8.8980     5.9330    57.0560 hc         1 BTB       0.039700
     59 H59          7.3970     5.8040    54.7430 hc         1 BTB       0.038700
     60 C60          9.3900     6.0660    54.4460 c3         1 BTB      -0.092100
     61 H61          8.2440     4.5810    55.2860 hc         1 BTB       0.038700
     62 H62          9.3540     7.0260    54.3750 hc         1 BTB       0.032700
     63 H63          9.3970     5.6830    53.5670 hc         1 BTB       0.032700
     64 H64         10.1920     5.8150    54.9120 hc         1 BTB       0.032700
@<TRIPOS>BOND
     1     1     2 1   
     2     1     3 1   
     3     2     4 1   
     4     2     5 2   
     5     3     6 ar  
     6     3     7 ar  
     7     4     8 ar  
     8     4     9 ar  
     9     5     7 1   
    10     5    10 1   
    11     6    11 ar  
    12     6    12 1   
    13     7    13 ar  
    14     8    14 ar  
    15     8    15 1   
    16     9    10 1   
    17     9    16 ar  
    18    11    17 ar  
    19    11    18 1   
    20    13    17 ar  
    21    13    19 1   
    22    14    20 ar  
    23    14    21 1   
    24    16    20 ar  
    25    16    22 1   
    26    17    23 1   
    27    18    24 ar  
    28    18    25 ar  
    29    20    26 1   
    30    24    27 ar  
    31    24    28 1   
    32    25    29 ar  
    33    25    30 1   
    34    26    31 1   
    35    26    32 1   
    36    26    33 1   
    37    27    34 ar  
    38    27    35 1   
    39    29    34 ar  
    40    29    36 1   
    41    31    37 1   
    42    31    38 1   
    43    31    39 1   
    44    34    40 1   
    45    37    41 1   
    46    37    42 1   
    47    37    43 1   
    48    41    44 1   
    49    41    45 1   
    50    41    46 1   
    51    44    47 1   
    52    44    48 1   
    53    44    49 1   
    54    47    50 1   
    55    47    51 1   
    56    47    52 1   
    57    50    53 1   
    58    50    54 1   
    59    50    55 1   
    60    55    56 1   
    61    55    57 1   
    62    55    58 1   
    63    56    59 1   
    64    56    60 1   
    65    56    61 1   
    66    60    62 1   
    67    60    63 1   
    68    60    64 1   
@<TRIPOS>SUBSTRUCTURE
     1 BTB         1 TEMP              0 ****  ****    0 ROOT
