@<TRIPOS>MOLECULE
ACE
   10     9     1     0     0
SMALL
bcc


@<TRIPOS>ATOM
      1 O1           0.0000    -1.3170    -0.0000 o          1 ACE      -0.531100
      2 C1           0.0000    -0.0870     0.0010 c          1 ACE       0.563100
      3 C2           1.2810     0.7020    -0.0000 c3         1 ACE      -0.204100
      4 C3          -1.2810     0.7020    -0.0000 c3         1 ACE      -0.204100
      5 H1           1.3280     1.3230    -0.8980 hc         1 ACE       0.063033
      6 H2           1.3260     1.3280     0.8940 hc         1 ACE       0.063033
      7 H3           2.1350     0.0200     0.0030 hc         1 ACE       0.063033
      8 H4          -2.1350     0.0190     0.0030 hc         1 ACE       0.063033
      9 H5          -1.3280     1.3230    -0.8980 hc         1 ACE       0.063033
     10 H6          -1.3270     1.3280     0.8940 hc         1 ACE       0.063033
@<TRIPOS>BOND
     1     1     2 2   
     2     2     3 1   
     3     2     4 1   
     4     3     5 1   
     5     3     6 1   
     6     3     7 1   
     7     4     8 1   
     8     4     9 1   
     9     4    10 1   
@<TRIPOS>SUBSTRUCTURE
     1 ACE         1 TEMP              0 ****  ****    0 ROOT
