@<TRIPOS>MOLECULE
PEN
 36 40 1 0 0
SMALL
USER_CHARGES


@<TRIPOS>ATOM
      1 C1         14.2418   23.7074   89.4894 C.ar        1 PEN         0.0000
      2 C2         14.0854   23.8268   88.0978 C.ar        1 PEN         0.0000
      3 C3         13.2607   23.1501   90.3202 C.ar        1 PEN         0.0000
      4 C4         15.4727   24.1954   90.0939 C.ar        1 PEN         0.0000
      5 H5         13.2840   23.5092   87.6972 H           1 PEN         0.0000
      6 C6         15.0613   24.3921   87.2881 C.ar        1 PEN         0.0000
      7 H7         12.4472   22.8329   89.9477 H           1 PEN         0.0000
      8 C8         13.4401   23.0481   91.7076 C.ar        1 PEN         0.0000
      9 C9         16.4646   24.7669   89.2617 C.ar        1 PEN         0.0000
     10 C10        15.6520   24.0934   91.4813 C.ar        1 PEN         0.0000
     11 C11        16.2859   24.8680   87.8869 C.ar        1 PEN         0.0000
     12 C12        14.8975   24.5174   85.8656 C.ar        1 PEN         0.0000
     13 C13        12.4482   22.4765   92.5398 C.ar        1 PEN         0.0000
     14 C14        14.6709   23.5361   92.3120 C.ar        1 PEN         0.0000
     15 H15        17.2699   25.0881   89.6511 H           1 PEN         0.0000
     16 H16        16.4656   24.4106   91.8538 H           1 PEN         0.0000
     17 C17        17.2819   25.4539   87.0239 C.ar        1 PEN         0.0000
     18 H18        14.0977   24.2110   85.4537 H           1 PEN         0.0000
     19 C19        15.8765   25.0685   85.1037 C.ar        1 PEN         0.0000
     20 C20        12.6268   22.3755   93.9145 C.ar        1 PEN         0.0000
     21 H21        11.6428   22.1554   92.1504 H           1 PEN         0.0000
     22 C22        14.8273   23.4167   93.7037 C.ar        1 PEN         0.0000
     23 C23        17.0839   25.5511   85.6885 C.ar        1 PEN         0.0000
     24 H24        18.0917   25.7779   87.3992 H           1 PEN         0.0000
     25 H25        15.7554   25.1333   84.1633 H           1 PEN         0.0000
     26 C26        11.6308   21.7896   94.7776 C.ar        1 PEN         0.0000
     27 C27        13.8514   22.8514   94.5133 C.ar        1 PEN         0.0000
     28 H28        15.6287   23.7343   94.1043 H           1 PEN         0.0000
     29 H29        17.7524   25.9428   85.1388 H           1 PEN         0.0000
     30 C30        11.8288   21.6924   96.1130 C.ar        1 PEN         0.0000
     31 H31        10.8210   21.4656   94.4023 H           1 PEN         0.0000
     32 C32        14.0152   22.7261   95.9359 C.ar        1 PEN         0.0000
     33 C33        13.0362   22.1750   96.6978 C.ar        1 PEN         0.0000
     34 H34        11.1604   21.3007   96.6626 H           1 PEN         0.0000
     35 H35        14.8150   23.0325   96.3477 H           1 PEN         0.0000
     36 H36        13.1574   22.1101   97.6382 H           1 PEN         0.0000
@<TRIPOS>BOND
     1    1    2     ar
     2    1    3     ar
     3    1    4     ar
     4    2    5     1
     5    2    6     ar
     6    3    7     1
     7    3    8     ar
     8    4    9     ar
     9    4   10     ar
    10    6   11     ar
    11    6   12     ar
    12    8   13     ar
    13    8   14     ar
    14    9   11     ar
    15    9   15     1
    16   10   14     ar
    17   10   16     1
    18   11   17     ar
    19   12   18     1
    20   12   19     ar
    21   13   20     ar
    22   13   21     1
    23   14   22     ar
    24   17   23     ar
    25   17   24     1
    26   19   23     ar
    27   19   25     1
    28   20   26     ar
    29   20   27     ar
    30   22   27     ar
    31   22   28     1
    32   23   29     1
    33   26   30     ar
    34   26   31     1
    35   27   32     ar
    36   30   33     ar
    37   30   34     1
    38   32   33     ar
    39   32   35     1
    40   33   36     1
@<TRIPOS>SUBSTRUCTURE
     1 PEN             1 TEMP              0 ****  ****    0 ROOT
