@<TRIPOS>MOLECULE
SPO
 161 174 1 0 0
SMALL
USER_CHARGES


@<TRIPOS>ATOM
      1 O1         22.6701   13.1811   19.9296 O.3         1 SPO         0.0000
      2 C2         23.3517   14.1303   19.2071 C.ar        1 SPO         0.0000
      3 C3         22.2330   12.0411   19.2184 C.3         1 SPO         0.0000
      4 C4         23.8591   15.1864   19.9429 C.ar        1 SPO         0.0000
      5 C5         23.5497   14.0862   17.8379 C.ar        1 SPO         0.0000
      6 H6         21.5569   12.3066   18.5589 H           1 SPO         0.0000
      7 H7         22.9953   11.6318   18.7589 H           1 SPO         0.0000
      8 H8         21.8429   11.3953   19.8441 H           1 SPO         0.0000
      9 C9         24.5653   16.1971   19.3246 C.ar        1 SPO         0.0000
     10 H10        23.7200   15.2157   20.8822 H           1 SPO         0.0000
     11 C11        24.2778   15.0999   17.2193 C.ar        1 SPO         0.0000
     12 H12        23.1925   13.3710   17.3249 H           1 SPO         0.0000
     13 C13        24.7843   16.1639   17.9495 C.ar        1 SPO         0.0000
     14 H14        24.9042   16.9199   19.8396 H           1 SPO         0.0000
     15 H15        24.4298   15.0615   16.2823 H           1 SPO         0.0000
     16 N16        25.5325   17.1993   17.3184 N.3         1 SPO         0.0000
     17 C17        25.0451   17.8490   16.1697 C.ar        1 SPO         0.0000
     18 C18        26.7587   17.5848   17.9424 C.ar        1 SPO         0.0000
     19 C19        25.9251   18.4837   15.2814 C.ar        1 SPO         0.0000
     20 C20        23.6675   17.8694   15.9007 C.ar        1 SPO         0.0000
     21 C21        26.9693   18.8666   18.4131 C.ar        1 SPO         0.0000
     22 C22        27.7489   16.6219   18.1530 C.ar        1 SPO         0.0000
     23 C23        25.4084   19.1054   14.1611 C.ar        1 SPO         0.0000
     24 H24        26.8605   18.4861   15.4471 H           1 SPO         0.0000
     25 C25        23.1660   18.5026   14.7815 C.ar        1 SPO         0.0000
     26 H26        23.0691   17.4394   16.5003 H           1 SPO         0.0000
     27 C27        28.1377   19.2014   19.1022 C.ar        1 SPO         0.0000
     28 H28        26.3077   19.5323   18.2656 H           1 SPO         0.0000
     29 C29        28.9035   16.9412   18.8324 C.ar        1 SPO         0.0000
     30 H30        27.6247   15.7393   17.8245 H           1 SPO         0.0000
     31 C31        24.0348   19.1249   13.8927 C.ar        1 SPO         0.0000
     32 C32        26.1771   19.8047   13.0382 C.3         1 SPO         0.0000
     33 H33        22.2300   18.5130   14.6191 H           1 SPO         0.0000
     34 C34        29.1029   18.2272   19.3153 C.ar        1 SPO         0.0000
     35 H35        28.2701   20.0863   19.4216 H           1 SPO         0.0000
     36 H36        29.5681   16.2768   18.9718 H           1 SPO         0.0000
     37 C37        23.8038   19.8645   12.6497 C.ar        1 SPO         0.0000
     38 C38        25.0372   20.2906   12.1468 C.ar        1 SPO         0.0000
     39 C39        27.1328   20.8885   13.5152 C.ar        1 SPO         0.0000
     40 C40        27.1387   18.8585   12.3317 C.ar        1 SPO         0.0000
     41 O41        30.2733   18.4134   20.0028 O.3         1 SPO         0.0000
     42 C42        22.6365   20.2263   11.9833 C.ar        1 SPO         0.0000
     43 C43        25.1286   21.0470   10.9983 C.ar        1 SPO         0.0000
     44 C44        26.7941   22.0989   14.0914 C.ar        1 SPO         0.0000
     45 C45        28.4599   20.5388   13.2472 C.ar        1 SPO         0.0000
     46 C46        26.7940   17.7732   11.5597 C.ar        1 SPO         0.0000
     47 C47        28.4688   19.2581   12.5187 C.ar        1 SPO         0.0000
     48 C48        30.5734   19.7188   20.4716 C.3         1 SPO         0.0000
     49 C49        22.7150   21.0114   10.8426 C.ar        1 SPO         0.0000
     50 H50        21.7916   19.9375   12.3076 H           1 SPO         0.0000
     51 C51        23.9543   21.4253   10.3366 C.ar        1 SPO         0.0000
     52 H52        25.9771   21.3081   10.6603 H           1 SPO         0.0000
     53 C53        27.8107   22.9900   14.4403 C.ar        1 SPO         0.0000
     54 H54        25.8837   22.3209   14.2477 H           1 SPO         0.0000
     55 C55        29.4724   21.4227   13.6081 C.ar        1 SPO         0.0000
     56 H56        25.8849   17.5088   11.4814 H           1 SPO         0.0000
     57 C57        27.8003   17.0613   10.8893 C.ar        1 SPO         0.0000
     58 C58        29.4740   18.4883   11.9412 C.ar        1 SPO         0.0000
     59 H59        30.6136   20.3375   19.7125 H           1 SPO         0.0000
     60 H60        29.8757   20.0108   21.0941 H           1 SPO         0.0000
     61 H61        31.4384   19.7101   20.9328 H           1 SPO         0.0000
     62 H62        21.9170   21.2723   10.3980 H           1 SPO         0.0000
     63 N63        24.0505   22.2726    9.1983 N.3         1 SPO         0.0000
     64 N64        27.5007   24.2473   15.0242 N.3         1 SPO         0.0000
     65 C65        29.1449   22.6282   14.2077 C.ar        1 SPO         0.0000
     66 H66        30.3816   21.2013   13.4444 H           1 SPO         0.0000
     67 N67        27.4276   16.0469    9.9879 N.3         1 SPO         0.0000
     68 C68        29.1405   17.4089   11.1223 C.ar        1 SPO         0.0000
     69 H69        30.3862   18.6976   12.1043 H           1 SPO         0.0000
     70 C70        25.0652   23.2825    9.2340 C.ar        1 SPO         0.0000
     71 C71        23.1904   22.1639    8.0859 C.ar        1 SPO         0.0000
     72 C72        28.2069   25.4186   14.6083 C.ar        1 SPO         0.0000
     73 C73        26.2039   24.4449   15.5964 C.ar        1 SPO         0.0000
     74 H74        29.8396   23.2222   14.4669 H           1 SPO         0.0000
     75 C75        26.1528   16.1186    9.3416 C.ar        1 SPO         0.0000
     76 C76        28.3563   15.0901    9.4762 C.ar        1 SPO         0.0000
     77 H77        29.8323   16.9003   10.7156 H           1 SPO         0.0000
     78 C78        25.1247   24.1678   10.3066 C.ar        1 SPO         0.0000
     79 C79        26.0229   23.3734    8.2352 C.ar        1 SPO         0.0000
     80 C80        23.0266   23.2309    7.2068 C.ar        1 SPO         0.0000
     81 C81        22.4870   20.9833    7.8122 C.ar        1 SPO         0.0000
     82 C82        28.5709   25.6232   13.2817 C.ar        1 SPO         0.0000
     83 C83        28.4957   26.4027   15.5451 C.ar        1 SPO         0.0000
     84 C84        25.3210   25.3879   15.1069 C.ar        1 SPO         0.0000
     85 C85        25.7969   23.6601   16.6772 C.ar        1 SPO         0.0000
     86 C86        25.6758   17.2965    8.7863 C.ar        1 SPO         0.0000
     87 C87        25.3670   14.9717    9.2632 C.ar        1 SPO         0.0000
     88 C88        29.1304   14.3028   10.3311 C.ar        1 SPO         0.0000
     89 C89        28.4612   14.8880    8.1083 C.ar        1 SPO         0.0000
     90 C90        26.1414   25.1001   10.3911 C.ar        1 SPO         0.0000
     91 H91        24.4613   24.1308   10.9855 H           1 SPO         0.0000
     92 C92        27.0357   24.3233    8.2994 C.ar        1 SPO         0.0000
     93 H93        25.9862   22.7777    7.4961 H           1 SPO         0.0000
     94 H94        23.5081   24.0358    7.3587 H           1 SPO         0.0000
     95 C95        22.1738   23.1456    6.1110 C.ar        1 SPO         0.0000
     96 H96        22.6112   20.2239    8.3694 H           1 SPO         0.0000
     97 C97        21.6168   20.9086    6.7448 C.ar        1 SPO         0.0000
     98 C98        29.2110   26.7886   12.8993 C.ar        1 SPO         0.0000
     99 H99        28.3785   24.9570   12.6326 H           1 SPO         0.0000
    100 C100       29.1245   27.5837   15.1656 C.ar        1 SPO         0.0000
    101 H101       28.2611   26.2674   16.4556 H           1 SPO         0.0000
    102 C102       24.0456   25.5525   15.6949 C.ar        1 SPO         0.0000
    103 H103       25.5727   25.9305   14.3688 H           1 SPO         0.0000
    104 C104       24.5442   23.8078   17.2426 C.ar        1 SPO         0.0000
    105 H105       26.3935   23.0113   17.0315 H           1 SPO         0.0000
    106 C106       24.4335   17.3436    8.1665 C.ar        1 SPO         0.0000
    107 H107       26.2067   18.0830    8.8305 H           1 SPO         0.0000
    108 C108       24.1517   14.9984    8.6215 C.ar        1 SPO         0.0000
    109 H109       25.6736   14.1633    9.6568 H           1 SPO         0.0000
    110 C110       29.9855   13.3453    9.8136 C.ar        1 SPO         0.0000
    111 H111       29.0698   14.4247   11.2713 H           1 SPO         0.0000
    112 C112       29.3009   13.9139    7.5797 C.ar        1 SPO         0.0000
    113 H113       27.9473   15.4275    7.5187 H           1 SPO         0.0000
    114 C114       27.1095   25.1716    9.3919 C.ar        1 SPO         0.0000
    115 H115       26.1803   25.6934   11.1320 H           1 SPO         0.0000
    116 H116       27.6735   24.3902    7.5984 H           1 SPO         0.0000
    117 C117       21.4472   21.9907    5.8930 C.ar        1 SPO         0.0000
    118 H118       22.0911   23.8797    5.5138 H           1 SPO         0.0000
    119 H119       21.1287   20.1083    6.5911 H           1 SPO         0.0000
    120 H120       29.4658   26.9136   11.9927 H           1 SPO         0.0000
    121 C121       29.4830   27.7802   13.8415 C.ar        1 SPO         0.0000
    122 H122       29.3077   28.2545   15.8128 H           1 SPO         0.0000
    123 C123       23.6766   24.7563   16.7454 C.ar        1 SPO         0.0000
    124 H124       23.4480   26.2123   15.3629 H           1 SPO         0.0000
    125 H125       24.2820   23.2574   17.9711 H           1 SPO         0.0000
    126 C126       23.6749   16.1834    8.0730 C.ar        1 SPO         0.0000
    127 H127       24.1060   18.1610    7.8101 H           1 SPO         0.0000
    128 H128       23.6355   14.2039    8.5526 H           1 SPO         0.0000
    129 C129       30.0665   13.1418    8.4362 C.ar        1 SPO         0.0000
    130 H130       30.5205   12.8236   10.4001 H           1 SPO         0.0000
    131 H131       29.3487   13.7797    6.6403 H           1 SPO         0.0000
    132 O132       28.1058   26.0953    9.5883 O.3         1 SPO         0.0000
    133 O133       20.5397   21.7965    4.8723 O.3         1 SPO         0.0000
    134 O134       30.0865   28.9099   13.3559 O.3         1 SPO         0.0000
    135 O135       22.4567   24.8247   17.3950 O.3         1 SPO         0.0000
    136 O136       22.4483   16.1016    7.4581 O.3         1 SPO         0.0000
    137 O137       30.9073   12.1407    8.0288 O.3         1 SPO         0.0000
    138 C138       29.1028   26.2019    8.5683 C.3         1 SPO         0.0000
    139 C139       20.2998   22.8843    4.0193 C.3         1 SPO         0.0000
    140 C140       30.2922   29.9883   14.2711 C.3         1 SPO         0.0000
    141 C141       21.4976   25.7028   16.8662 C.3         1 SPO         0.0000
    142 C142       21.9638   17.2690    6.8009 C.3         1 SPO         0.0000
    143 C143       30.9960   11.8848    6.6293 C.3         1 SPO         0.0000
    144 H144       28.6858   26.5023    7.7345 H           1 SPO         0.0000
    145 H145       29.7840   26.8500    8.8440 H           1 SPO         0.0000
    146 H146       29.5212   25.3264    8.4280 H           1 SPO         0.0000
    147 H147       19.6163   22.6384    3.3609 H           1 SPO         0.0000
    148 H148       19.9867   23.6489    4.5457 H           1 SPO         0.0000
    149 H149       21.1287   23.1248    3.5544 H           1 SPO         0.0000
    150 H150       30.6977   30.7451   13.7986 H           1 SPO         0.0000
    151 H151       29.4314   30.2641   14.6497 H           1 SPO         0.0000
    152 H152       30.8885   29.6957   14.9916 H           1 SPO         0.0000
    153 H153       21.3203   25.4679   15.9318 H           1 SPO         0.0000
    154 H154       20.6691   25.6314   17.3849 H           1 SPO         0.0000
    155 H155       21.8348   26.6217   16.9140 H           1 SPO         0.0000
    156 H156       21.7802   17.9659    7.4655 H           1 SPO         0.0000
    157 H157       22.6390   17.5913    6.1686 H           1 SPO         0.0000
    158 H158       21.1391   17.0526    6.3169 H           1 SPO         0.0000
    159 H159       31.2914   12.6959    6.1668 H           1 SPO         0.0000
    160 H160       31.6403   11.1648    6.4692 H           1 SPO         0.0000
    161 H161       30.1172   11.6179    6.2897 H           1 SPO         0.0000
@<TRIPOS>BOND
     1    1    2     1
     2    1    3     1
     3    2    4     ar
     4    2    5     ar
     5    3    6     1
     6    3    7     1
     7    3    8     1
     8    4    9     ar
     9    4   10     1
    10    5   11     ar
    11    5   12     1
    12    9   13     ar
    13    9   14     1
    14   11   13     ar
    15   11   15     1
    16   13   16     1
    17   16   17     1
    18   16   18     1
    19   17   19     ar
    20   17   20     ar
    21   18   21     ar
    22   18   22     ar
    23   19   23     ar
    24   19   24     1
    25   20   25     ar
    26   20   26     1
    27   21   27     ar
    28   21   28     1
    29   22   29     ar
    30   22   30     1
    31   23   31     ar
    32   23   32     1
    33   25   31     ar
    34   25   33     1
    35   27   34     ar
    36   27   35     1
    37   29   34     ar
    38   29   36     1
    39   31   37     ar
    40   32   38     1
    41   32   39     1
    42   32   40     1
    43   34   41     1
    44   37   38     ar
    45   37   42     ar
    46   38   43     ar
    47   39   44     ar
    48   39   45     ar
    49   40   46     ar
    50   40   47     ar
    51   41   48     1
    52   42   49     ar
    53   42   50     1
    54   43   51     ar
    55   43   52     1
    56   44   53     ar
    57   44   54     1
    58   45   47     ar
    59   45   55     ar
    60   46   56     1
    61   46   57     ar
    62   47   58     ar
    63   48   59     1
    64   48   60     1
    65   48   61     1
    66   49   51     ar
    67   49   62     1
    68   51   63     1
    69   53   64     1
    70   53   65     ar
    71   55   65     ar
    72   55   66     1
    73   57   67     1
    74   57   68     ar
    75   58   68     ar
    76   58   69     1
    77   63   70     1
    78   63   71     1
    79   64   72     1
    80   64   73     1
    81   65   74     1
    82   67   75     1
    83   67   76     1
    84   68   77     1
    85   70   78     ar
    86   70   79     ar
    87   71   80     ar
    88   71   81     ar
    89   72   82     ar
    90   72   83     ar
    91   73   84     ar
    92   73   85     ar
    93   75   86     ar
    94   75   87     ar
    95   76   88     ar
    96   76   89     ar
    97   78   90     ar
    98   78   91     1
    99   79   92     ar
   100   79   93     1
   101   80   94     1
   102   80   95     ar
   103   81   96     1
   104   81   97     ar
   105   82   98     ar
   106   82   99     1
   107   83  100     ar
   108   83  101     1
   109   84  102     ar
   110   84  103     1
   111   85  104     ar
   112   85  105     1
   113   86  106     ar
   114   86  107     1
   115   87  108     ar
   116   87  109     1
   117   88  110     ar
   118   88  111     1
   119   89  112     ar
   120   89  113     1
   121   90  114     ar
   122   90  115     1
   123   92  114     ar
   124   92  116     1
   125   95  117     ar
   126   95  118     1
   127   97  117     ar
   128   97  119     1
   129   98  120     1
   130   98  121     ar
   131  100  121     ar
   132  100  122     1
   133  102  123     ar
   134  102  124     1
   135  104  123     ar
   136  104  125     1
   137  106  126     ar
   138  106  127     1
   139  108  126     ar
   140  108  128     1
   141  110  129     ar
   142  110  130     1
   143  112  129     ar
   144  112  131     1
   145  114  132     1
   146  117  133     1
   147  121  134     1
   148  123  135     1
   149  126  136     1
   150  129  137     1
   151  132  138     1
   152  133  139     1
   153  134  140     1
   154  135  141     1
   155  136  142     1
   156  137  143     1
   157  138  144     1
   158  138  145     1
   159  138  146     1
   160  139  147     1
   161  139  148     1
   162  139  149     1
   163  140  150     1
   164  140  151     1
   165  140  152     1
   166  141  153     1
   167  141  154     1
   168  141  155     1
   169  142  156     1
   170  142  157     1
   171  142  158     1
   172  143  159     1
   173  143  160     1
   174  143  161     1
@<TRIPOS>SUBSTRUCTURE
     1 SPO             1 TEMP              0 ****  ****    0 ROOT
