@<TRIPOS>MOLECULE
SPO
  161   174     1     0     0
SMALL
bcc


@<TRIPOS>ATOM
      1 O1          22.6700    13.1810    19.9300 os         1 SPO      -0.326900
      2 C2          23.3520    14.1300    19.2070 ca         1 SPO       0.105350
      3 C3          22.2330    12.0410    19.2180 c3         1 SPO       0.113200
      4 C4          23.8590    15.1860    19.9430 ca         1 SPO      -0.162812
      5 C5          23.5500    14.0860    17.8380 ca         1 SPO      -0.162812
      6 H6          21.5570    12.3070    18.5590 h1         1 SPO       0.044117
      7 H7          22.9950    11.6320    18.7590 h1         1 SPO       0.044117
      8 H8          21.8430    11.3950    19.8440 h1         1 SPO       0.044117
      9 C9          24.5650    16.1970    19.3250 ca         1 SPO      -0.123438
     10 H10         23.7200    15.2160    20.8820 ha         1 SPO       0.145250
     11 C11         24.2780    15.1000    17.2190 ca         1 SPO      -0.123438
     12 H12         23.1920    13.3710    17.3250 ha         1 SPO       0.145250
     13 C13         24.7840    16.1640    17.9500 ca         1 SPO       0.113100
     14 H14         24.9040    16.9200    19.8400 ha         1 SPO       0.147625
     15 H15         24.4300    15.0620    16.2820 ha         1 SPO       0.147625
     16 N16         25.5320    17.1990    17.3180 nh         1 SPO      -0.434800
     17 C17         25.0450    17.8490    16.1700 ca         1 SPO       0.151850
     18 C18         26.7590    17.5850    17.9420 ca         1 SPO       0.113100
     19 C19         25.9250    18.4840    15.2810 ca         1 SPO      -0.132250
     20 C20         23.6680    17.8690    15.9010 ca         1 SPO      -0.162000
     21 C21         26.9690    18.8670    18.4130 ca         1 SPO      -0.123438
     22 C22         27.7490    16.6220    18.1530 ca         1 SPO      -0.123438
     23 C23         25.4080    19.1050    14.1610 ca         1 SPO      -0.054050
     24 H24         26.8600    18.4860    15.4470 ha         1 SPO       0.157250
     25 C25         23.1660    18.5030    14.7810 ca         1 SPO      -0.087750
     26 H26         23.0690    17.4390    16.5000 ha         1 SPO       0.145750
     27 C27         28.1380    19.2010    19.1020 ca         1 SPO      -0.162812
     28 H28         26.3080    19.5320    18.2660 ha         1 SPO       0.147625
     29 C29         28.9040    16.9410    18.8320 ca         1 SPO      -0.162812
     30 H30         27.6250    15.7390    17.8250 ha         1 SPO       0.147625
     31 C31         24.0350    19.1250    13.8930 cp         1 SPO      -0.056000
     32 C32         26.1770    19.8050    13.0380 c5         1 SPO       0.135200
     33 H33         22.2300    18.5130    14.6190 ha         1 SPO       0.137750
     34 C34         29.1030    18.2270    19.3150 ca         1 SPO       0.105350
     35 H35         28.2700    20.0860    19.4220 ha         1 SPO       0.145250
     36 H36         29.5680    16.2770    18.9720 ha         1 SPO       0.145250
     37 C37         23.8040    19.8640    12.6500 cp         1 SPO      -0.056000
     38 C38         25.0370    20.2910    12.1470 ca         1 SPO      -0.054050
     39 C39         27.1330    20.8890    13.5150 ca         1 SPO      -0.054050
     40 C40         27.1390    18.8580    12.3320 ca         1 SPO      -0.054050
     41 O41         30.2730    18.4130    20.0030 os         1 SPO      -0.326900
     42 C42         22.6370    20.2260    11.9830 ca         1 SPO      -0.087750
     43 C43         25.1290    21.0470    10.9980 ca         1 SPO      -0.132250
     44 C44         26.7940    22.0990    14.0910 ca         1 SPO      -0.132250
     45 C45         28.4600    20.5390    13.2470 cp         1 SPO      -0.056000
     46 C46         26.7940    17.7730    11.5600 ca         1 SPO      -0.132250
     47 C47         28.4690    19.2580    12.5190 cp         1 SPO      -0.056000
     48 C48         30.5730    19.7190    20.4720 c3         1 SPO       0.113200
     49 C49         22.7150    21.0110    10.8430 ca         1 SPO      -0.162000
     50 H50         21.7920    19.9380    12.3080 ha         1 SPO       0.137750
     51 C51         23.9540    21.4250    10.3370 ca         1 SPO       0.151850
     52 H52         25.9770    21.3080    10.6600 ha         1 SPO       0.157250
     53 C53         27.8110    22.9900    14.4400 ca         1 SPO       0.151850
     54 H54         25.8840    22.3210    14.2480 ha         1 SPO       0.157250
     55 C55         29.4720    21.4230    13.6080 ca         1 SPO      -0.087750
     56 H56         25.8850    17.5090    11.4810 ha         1 SPO       0.157250
     57 C57         27.8000    17.0610    10.8890 ca         1 SPO       0.151850
     58 C58         29.4740    18.4880    11.9410 ca         1 SPO      -0.087750
     59 H59         30.6140    20.3370    19.7120 h1         1 SPO       0.044117
     60 H60         29.8760    20.0110    21.0940 h1         1 SPO       0.044117
     61 H61         31.4380    19.7100    20.9330 h1         1 SPO       0.044117
     62 H62         21.9170    21.2720    10.3980 ha         1 SPO       0.145750
     63 N63         24.0500    22.2730     9.1980 nh         1 SPO      -0.434800
     64 N64         27.5010    24.2470    15.0240 nh         1 SPO      -0.434800
     65 C65         29.1450    22.6280    14.2080 ca         1 SPO      -0.162000
     66 H66         30.3820    21.2010    13.4440 ha         1 SPO       0.137750
     67 N67         27.4280    16.0470     9.9880 nh         1 SPO      -0.434800
     68 C68         29.1400    17.4090    11.1220 ca         1 SPO      -0.162000
     69 H69         30.3860    18.6980    12.1040 ha         1 SPO       0.137750
     70 C70         25.0650    23.2820     9.2340 ca         1 SPO       0.113100
     71 C71         23.1900    22.1640     8.0860 ca         1 SPO       0.113100
     72 C72         28.2070    25.4190    14.6080 ca         1 SPO       0.113100
     73 C73         26.2040    24.4450    15.5960 ca         1 SPO       0.113100
     74 H74         29.8400    23.2220    14.4670 ha         1 SPO       0.145750
     75 C75         26.1530    16.1190     9.3420 ca         1 SPO       0.113100
     76 C76         28.3560    15.0900     9.4760 ca         1 SPO       0.113100
     77 H77         29.8320    16.9000    10.7160 ha         1 SPO       0.145750
     78 C78         25.1250    24.1680    10.3070 ca         1 SPO      -0.123438
     79 C79         26.0230    23.3730     8.2350 ca         1 SPO      -0.123438
     80 C80         23.0270    23.2310     7.2070 ca         1 SPO      -0.123438
     81 C81         22.4870    20.9830     7.8120 ca         1 SPO      -0.123438
     82 C82         28.5710    25.6230    13.2820 ca         1 SPO      -0.123438
     83 C83         28.4960    26.4030    15.5450 ca         1 SPO      -0.123438
     84 C84         25.3210    25.3880    15.1070 ca         1 SPO      -0.123438
     85 C85         25.7970    23.6600    16.6770 ca         1 SPO      -0.123438
     86 C86         25.6760    17.2970     8.7860 ca         1 SPO      -0.123438
     87 C87         25.3670    14.9720     9.2630 ca         1 SPO      -0.123438
     88 C88         29.1300    14.3030    10.3310 ca         1 SPO      -0.123438
     89 C89         28.4610    14.8880     8.1080 ca         1 SPO      -0.123438
     90 C90         26.1410    25.1000    10.3910 ca         1 SPO      -0.162812
     91 H91         24.4610    24.1310    10.9860 ha         1 SPO       0.147625
     92 C92         27.0360    24.3230     8.2990 ca         1 SPO      -0.162812
     93 H93         25.9860    22.7780     7.4960 ha         1 SPO       0.147625
     94 H94         23.5080    24.0360     7.3590 ha         1 SPO       0.147625
     95 C95         22.1740    23.1460     6.1110 ca         1 SPO      -0.162812
     96 H96         22.6110    20.2240     8.3690 ha         1 SPO       0.147625
     97 C97         21.6170    20.9090     6.7450 ca         1 SPO      -0.162812
     98 C98         29.2110    26.7890    12.8990 ca         1 SPO      -0.162812
     99 H99         28.3780    24.9570    12.6330 ha         1 SPO       0.147625
    100 C100        29.1250    27.5840    15.1660 ca         1 SPO      -0.162812
    101 H101        28.2610    26.2670    16.4560 ha         1 SPO       0.147625
    102 C102        24.0460    25.5520    15.6950 ca         1 SPO      -0.162812
    103 H103        25.5730    25.9300    14.3690 ha         1 SPO       0.147625
    104 C104        24.5440    23.8080    17.2430 ca         1 SPO      -0.162812
    105 H105        26.3930    23.0110    17.0320 ha         1 SPO       0.147625
    106 C106        24.4330    17.3440     8.1660 ca         1 SPO      -0.162812
    107 H107        26.2070    18.0830     8.8310 ha         1 SPO       0.147625
    108 C108        24.1520    14.9980     8.6210 ca         1 SPO      -0.162812
    109 H109        25.6740    14.1630     9.6570 ha         1 SPO       0.147625
    110 C110        29.9850    13.3450     9.8140 ca         1 SPO      -0.162812
    111 H111        29.0700    14.4250    11.2710 ha         1 SPO       0.147625
    112 C112        29.3010    13.9140     7.5800 ca         1 SPO      -0.162812
    113 H113        27.9470    15.4280     7.5190 ha         1 SPO       0.147625
    114 C114        27.1100    25.1720     9.3920 ca         1 SPO       0.105350
    115 H115        26.1800    25.6930    11.1320 ha         1 SPO       0.145250
    116 H116        27.6740    24.3900     7.5980 ha         1 SPO       0.145250
    117 C117        21.4470    21.9910     5.8930 ca         1 SPO       0.105350
    118 H118        22.0910    23.8800     5.5140 ha         1 SPO       0.145250
    119 H119        21.1290    20.1080     6.5910 ha         1 SPO       0.145250
    120 H120        29.4660    26.9140    11.9930 ha         1 SPO       0.145250
    121 C121        29.4830    27.7800    13.8410 ca         1 SPO       0.105350
    122 H122        29.3080    28.2550    15.8130 ha         1 SPO       0.145250
    123 C123        23.6770    24.7560    16.7450 ca         1 SPO       0.105350
    124 H124        23.4480    26.2120    15.3630 ha         1 SPO       0.145250
    125 H125        24.2820    23.2570    17.9710 ha         1 SPO       0.145250
    126 C126        23.6750    16.1830     8.0730 ca         1 SPO       0.105350
    127 H127        24.1060    18.1610     7.8100 ha         1 SPO       0.145250
    128 H128        23.6360    14.2040     8.5530 ha         1 SPO       0.145250
    129 C129        30.0670    13.1420     8.4360 ca         1 SPO       0.105350
    130 H130        30.5200    12.8240    10.4000 ha         1 SPO       0.145250
    131 H131        29.3490    13.7800     6.6400 ha         1 SPO       0.145250
    132 O132        28.1060    26.0950     9.5880 os         1 SPO      -0.326900
    133 O133        20.5400    21.7970     4.8720 os         1 SPO      -0.326900
    134 O134        30.0870    28.9100    13.3560 os         1 SPO      -0.326900
    135 O135        22.4570    24.8250    17.3950 os         1 SPO      -0.326900
    136 O136        22.4480    16.1020     7.4580 os         1 SPO      -0.326900
    137 O137        30.9070    12.1410     8.0290 os         1 SPO      -0.326900
    138 C138        29.1030    26.2020     8.5680 c3         1 SPO       0.113200
    139 C139        20.3000    22.8840     4.0190 c3         1 SPO       0.113200
    140 C140        30.2920    29.9880    14.2710 c3         1 SPO       0.113200
    141 C141        21.4980    25.7030    16.8660 c3         1 SPO       0.113200
    142 C142        21.9640    17.2690     6.8010 c3         1 SPO       0.113200
    143 C143        30.9960    11.8850     6.6290 c3         1 SPO       0.113200
    144 H144        28.6860    26.5020     7.7340 h1         1 SPO       0.044117
    145 H145        29.7840    26.8500     8.8440 h1         1 SPO       0.044117
    146 H146        29.5210    25.3260     8.4280 h1         1 SPO       0.044117
    147 H147        19.6160    22.6380     3.3610 h1         1 SPO       0.044117
    148 H148        19.9870    23.6490     4.5460 h1         1 SPO       0.044117
    149 H149        21.1290    23.1250     3.5540 h1         1 SPO       0.044117
    150 H150        30.6980    30.7450    13.7990 h1         1 SPO       0.044117
    151 H151        29.4310    30.2640    14.6500 h1         1 SPO       0.044117
    152 H152        30.8890    29.6960    14.9920 h1         1 SPO       0.044117
    153 H153        21.3200    25.4680    15.9320 h1         1 SPO       0.044117
    154 H154        20.6690    25.6310    17.3850 h1         1 SPO       0.044117
    155 H155        21.8350    26.6220    16.9140 h1         1 SPO       0.044117
    156 H156        21.7800    17.9660     7.4650 h1         1 SPO       0.044117
    157 H157        22.6390    17.5910     6.1690 h1         1 SPO       0.044117
    158 H158        21.1390    17.0530     6.3170 h1         1 SPO       0.044117
    159 H159        31.2910    12.6960     6.1670 h1         1 SPO       0.044117
    160 H160        31.6400    11.1650     6.4690 h1         1 SPO       0.044117
    161 H161        30.1170    11.6180     6.2900 h1         1 SPO       0.044117
@<TRIPOS>BOND
     1     1     2 1   
     2     1     3 1   
     3     2     4 ar  
     4     2     5 ar  
     5     3     6 1   
     6     3     7 1   
     7     3     8 1   
     8     4     9 ar  
     9     4    10 1   
    10     5    11 ar  
    11     5    12 1   
    12     9    13 ar  
    13     9    14 1   
    14    11    13 ar  
    15    11    15 1   
    16    13    16 1   
    17    16    17 1   
    18    16    18 1   
    19    17    19 ar  
    20    17    20 ar  
    21    18    21 ar  
    22    18    22 ar  
    23    19    23 ar  
    24    19    24 1   
    25    20    25 ar  
    26    20    26 1   
    27    21    27 ar  
    28    21    28 1   
    29    22    29 ar  
    30    22    30 1   
    31    23    31 ar  
    32    23    32 1   
    33    25    31 ar  
    34    25    33 1   
    35    27    34 ar  
    36    27    35 1   
    37    29    34 ar  
    38    29    36 1   
    39    31    37 1   
    40    32    38 1   
    41    32    39 1   
    42    32    40 1   
    43    34    41 1   
    44    37    38 ar  
    45    37    42 ar  
    46    38    43 ar  
    47    39    44 ar  
    48    39    45 ar  
    49    40    46 ar  
    50    40    47 ar  
    51    41    48 1   
    52    42    49 ar  
    53    42    50 1   
    54    43    51 ar  
    55    43    52 1   
    56    44    53 ar  
    57    44    54 1   
    58    45    47 1   
    59    45    55 ar  
    60    46    56 1   
    61    46    57 ar  
    62    47    58 ar  
    63    48    59 1   
    64    48    60 1   
    65    48    61 1   
    66    49    51 ar  
    67    49    62 1   
    68    51    63 1   
    69    53    64 1   
    70    53    65 ar  
    71    55    65 ar  
    72    55    66 1   
    73    57    67 1   
    74    57    68 ar  
    75    58    68 ar  
    76    58    69 1   
    77    63    70 1   
    78    63    71 1   
    79    64    72 1   
    80    64    73 1   
    81    65    74 1   
    82    67    75 1   
    83    67    76 1   
    84    68    77 1   
    85    70    78 ar  
    86    70    79 ar  
    87    71    80 ar  
    88    71    81 ar  
    89    72    82 ar  
    90    72    83 ar  
    91    73    84 ar  
    92    73    85 ar  
    93    75    86 ar  
    94    75    87 ar  
    95    76    88 ar  
    96    76    89 ar  
    97    78    90 ar  
    98    78    91 1   
    99    79    92 ar  
   100    79    93 1   
   101    80    94 1   
   102    80    95 ar  
   103    81    96 1   
   104    81    97 ar  
   105    82    98 ar  
   106    82    99 1   
   107    83   100 ar  
   108    83   101 1   
   109    84   102 ar  
   110    84   103 1   
   111    85   104 ar  
   112    85   105 1   
   113    86   106 ar  
   114    86   107 1   
   115    87   108 ar  
   116    87   109 1   
   117    88   110 ar  
   118    88   111 1   
   119    89   112 ar  
   120    89   113 1   
   121    90   114 ar  
   122    90   115 1   
   123    92   114 ar  
   124    92   116 1   
   125    95   117 ar  
   126    95   118 1   
   127    97   117 ar  
   128    97   119 1   
   129    98   120 1   
   130    98   121 ar  
   131   100   121 ar  
   132   100   122 1   
   133   102   123 ar  
   134   102   124 1   
   135   104   123 ar  
   136   104   125 1   
   137   106   126 ar  
   138   106   127 1   
   139   108   126 ar  
   140   108   128 1   
   141   110   129 ar  
   142   110   130 1   
   143   112   129 ar  
   144   112   131 1   
   145   114   132 1   
   146   117   133 1   
   147   121   134 1   
   148   123   135 1   
   149   126   136 1   
   150   129   137 1   
   151   132   138 1   
   152   133   139 1   
   153   134   140 1   
   154   135   141 1   
   155   136   142 1   
   156   137   143 1   
   157   138   144 1   
   158   138   145 1   
   159   138   146 1   
   160   139   147 1   
   161   139   148 1   
   162   139   149 1   
   163   140   150 1   
   164   140   151 1   
   165   140   152 1   
   166   141   153 1   
   167   141   154 1   
   168   141   155 1   
   169   142   156 1   
   170   142   157 1   
   171   142   158 1   
   172   143   159 1   
   173   143   160 1   
   174   143   161 1   
@<TRIPOS>SUBSTRUCTURE
     1 SPO         1 TEMP              0 ****  ****    0 ROOT
