@<TRIPOS>MOLECULE
SPR
 161 174 1 0 0
SMALL
USER_CHARGES


@<TRIPOS>ATOM
      1 O1          6.6752   -3.7338   -0.3109 O.3         1 SPR         0.0000
      2 C2          7.2786   -2.6040   -0.7965 C.ar        1 SPR         0.0000
      3 C3          6.4694   -4.8121   -1.2262 C.3         1 SPR         0.0000
      4 C4          7.6372   -2.4075   -2.1207 C.ar        1 SPR         0.0000
      5 C5          7.5506   -1.6124    0.1456 C.ar        1 SPR         0.0000
      6 H6          6.0640   -5.5689   -0.7536 H           1 SPR         0.0000
      7 H7          7.3303   -5.0880   -1.6048 H           1 SPR         0.0000
      8 H8          5.8731   -4.5196   -1.9467 H           1 SPR         0.0000
      9 H9          7.4539   -3.0783   -2.7679 H           1 SPR         0.0000
     10 C10         8.2659   -1.2265   -2.5002 C.ar        1 SPR         0.0000
     11 C11         8.1908   -0.4470   -0.2368 C.ar        1 SPR         0.0000
     12 H12         7.2958   -1.7374    1.0523 H           1 SPR         0.0000
     13 C13         8.5547   -0.2425   -1.5634 C.ar        1 SPR         0.0000
     14 H14         8.5005   -1.0913   -3.4107 H           1 SPR         0.0000
     15 H15         8.3831    0.2192    0.4123 H           1 SPR         0.0000
     16 N16         9.2609    0.9289   -1.9793 N.3         1 SPR         0.0000
     17 C17         8.9509    2.1861   -1.3953 C.ar        1 SPR         0.0000
     18 C18        10.5578    0.7313   -2.5515 C.ar        1 SPR         0.0000
     19 C19         9.9676    3.0772   -1.0465 C.ar        1 SPR         0.0000
     20 C20         7.6167    2.5480   -1.1628 C.ar        1 SPR         0.0000
     21 C21        11.4407   -0.2117   -2.0620 C.ar        1 SPR         0.0000
     22 C22        10.9647    1.5161   -3.6323 C.ar        1 SPR         0.0000
     23 C23         9.6288    4.2877   -0.4703 C.ar        1 SPR         0.0000
     24 H24        10.8779    2.8553   -1.2028 H           1 SPR         0.0000
     25 C25         7.2892    3.7534   -0.5632 C.ar        1 SPR         0.0000
     26 H26         6.9220    1.9540   -1.4219 H           1 SPR         0.0000
     27 C27        12.7161   -0.3763   -2.6500 C.ar        1 SPR         0.0000
     28 H28        11.1889   -0.7543   -1.3239 H           1 SPR         0.0000
     29 C29        12.2174    1.3684   -4.1977 C.ar        1 SPR         0.0000
     30 H30        10.3681    2.1649   -3.9866 H           1 SPR         0.0000
     31 C31        10.5845    5.3715    0.0068 C.3         1 SPR         0.0000
     32 C32         8.3017    4.6373   -0.2023 C.ar        1 SPR         0.0000
     33 H33         6.3800    3.9748   -0.3995 H           1 SPR         0.0000
     34 C34        13.0850    0.4199   -3.7005 C.ar        1 SPR         0.0000
     35 H35        13.3136   -1.0361   -2.3179 H           1 SPR         0.0000
     36 H36        12.4796    1.9188   -4.9262 H           1 SPR         0.0000
     37 C37        11.3532    6.0707   -1.1162 C.ar        1 SPR         0.0000
     38 C38        11.7244    4.8856    0.8981 C.ar        1 SPR         0.0000
     39 C39         9.6229    6.3177    0.7133 C.ar        1 SPR         0.0000
     40 C40         8.2928    5.9181    0.5262 C.ar        1 SPR         0.0000
     41 O41        14.3049    0.3515   -4.3501 O.3         1 SPR         0.0000
     42 C42        12.7269    6.0513   -0.8478 C.ar        1 SPR         0.0000
     43 C43        10.8365    6.6924   -2.2365 C.ar        1 SPR         0.0000
     44 C44        12.9578    5.3116    0.3953 C.ar        1 SPR         0.0000
     45 C45        11.6330    4.1292    2.0467 C.ar        1 SPR         0.0000
     46 C46         9.9677    7.4029    1.4853 C.ar        1 SPR         0.0000
     47 C47         7.2876    6.6878    1.1037 C.ar        1 SPR         0.0000
     48 C48        15.2640   -0.5266   -3.8213 C.3         1 SPR         0.0000
     49 C49        13.5956    6.6736   -1.7366 C.ar        1 SPR         0.0000
     50 C50        11.7165    7.3272   -3.1248 C.ar        1 SPR         0.0000
     51 H51         9.9011    6.6901   -2.4021 H           1 SPR         0.0000
     52 C52        14.1251    4.9499    1.0616 C.ar        1 SPR         0.0000
     53 C53        12.8073    3.7509    2.7083 C.ar        1 SPR         0.0000
     54 H54        10.7845    3.8681    2.3847 H           1 SPR         0.0000
     55 H55        10.8767    7.6674    1.5635 H           1 SPR         0.0000
     56 C56         8.9613    8.1149    2.1557 C.ar        1 SPR         0.0000
     57 C57         7.6211    7.7673    1.9226 C.ar        1 SPR         0.0000
     58 H58         6.3754    6.4786    0.9407 H           1 SPR         0.0000
     59 H59        15.4413   -0.2917   -2.8869 H           1 SPR         0.0000
     60 H60        16.0926   -0.4552   -4.3399 H           1 SPR         0.0000
     61 H61        14.9268   -1.4455   -3.8690 H           1 SPR         0.0000
     62 C62        13.0941    7.3068   -2.8558 C.ar        1 SPR         0.0000
     63 H63        14.5316    6.6632   -1.5742 H           1 SPR         0.0000
     64 N64        11.2291    7.9769   -4.2735 N.3         1 SPR         0.0000
     65 C65        14.0467    4.1647    2.2023 C.ar        1 SPR         0.0000
     66 H66        14.9700    5.2387    0.7373 H           1 SPR         0.0000
     67 N67        12.7111    2.9036    3.8466 N.3         1 SPR         0.0000
     68 N68         9.3341    9.1293    3.0570 N.3         1 SPR         0.0000
     69 H69         6.9294    8.2759    2.3294 H           1 SPR         0.0000
     70 H70        13.6925    7.7368   -3.4554 H           1 SPR         0.0000
     71 C71        11.9773    9.0123   -4.9046 C.ar        1 SPR         0.0000
     72 C72        10.0029    7.5914   -4.8975 C.ar        1 SPR         0.0000
     73 H73        14.8446    3.9039    2.6469 H           1 SPR         0.0000
     74 C74        11.6964    1.8936    3.8109 C.ar        1 SPR         0.0000
     75 C75        13.5712    3.0123    4.9590 C.ar        1 SPR         0.0000
     76 C76        10.6088    9.0575    3.7034 C.ar        1 SPR         0.0000
     77 C77         8.4053   10.0861    3.5687 C.ar        1 SPR         0.0000
     78 C78        12.1964    8.9791   -6.2797 C.ar        1 SPR         0.0000
     79 C79        12.4838   10.0763   -4.1743 C.ar        1 SPR         0.0000
     80 C80         9.7923    6.3096   -5.3682 C.ar        1 SPR         0.0000
     81 C81         9.0127    8.5543   -5.1081 C.ar        1 SPR         0.0000
     82 C82        11.6370    1.0083    2.7383 C.ar        1 SPR         0.0000
     83 C83        10.7388    1.8028    4.8097 C.ar        1 SPR         0.0000
     84 C84        13.7351    1.9452    5.8381 C.ar        1 SPR         0.0000
     85 C85        14.2746    4.1929    5.2327 C.ar        1 SPR         0.0000
     86 C86        11.0858    7.8797    4.2586 C.ar        1 SPR         0.0000
     87 C87        11.3946   10.2045    3.7818 C.ar        1 SPR         0.0000
     88 C88         7.6312   10.8733    2.7138 C.ar        1 SPR         0.0000
     89 C89         8.3004   10.2882    4.9366 C.ar        1 SPR         0.0000
     90 C90        12.9025    9.9898   -6.8980 C.ar        1 SPR         0.0000
     91 H91        11.8574    8.2563   -6.7946 H           1 SPR         0.0000
     92 C92        13.2119   11.0900   -4.7930 C.ar        1 SPR         0.0000
     93 H93        12.3318   10.1147   -3.2373 H           1 SPR         0.0000
     94 C94         8.6239    5.9747   -6.0573 C.ar        1 SPR         0.0000
     95 H95        10.4539    5.6439   -5.2206 H           1 SPR         0.0000
     96 C96         7.8581    8.2350   -5.7875 C.ar        1 SPR         0.0000
     97 H97         9.1369    9.4369   -4.7796 H           1 SPR         0.0000
     98 C98        10.6202    0.0761    2.6538 C.ar        1 SPR         0.0000
     99 H99        12.3003    1.0453    2.0594 H           1 SPR         0.0000
    100 C100        9.7259    0.8529    4.7455 C.ar        1 SPR         0.0000
    101 H101       10.7754    2.3985    5.5488 H           1 SPR         0.0000
    102 C102       14.5878    2.0306    6.9339 C.ar        1 SPR         0.0000
    103 H103       13.2536    1.1404    5.6862 H           1 SPR         0.0000
    104 C104       15.1448    4.2675    6.3001 C.ar        1 SPR         0.0000
    105 H105       14.1504    4.9523    4.6755 H           1 SPR         0.0000
    106 C106       12.3281    7.8326    4.8784 C.ar        1 SPR         0.0000
    107 H107       10.5549    7.0932    4.2144 H           1 SPR         0.0000
    108 C108       12.6100   10.1778    4.4234 C.ar        1 SPR         0.0000
    109 H109       11.0880   11.0129    3.3881 H           1 SPR         0.0000
    110 C110        6.7762   11.8309    3.2313 C.ar        1 SPR         0.0000
    111 H111        7.6918   10.7515    1.7736 H           1 SPR         0.0000
    112 C112        7.4607   11.2623    5.4653 C.ar        1 SPR         0.0000
    113 H113        8.8143    9.7487    5.5262 H           1 SPR         0.0000
    114 C114       13.4100   11.0458   -6.1621 C.ar        1 SPR         0.0000
    115 H115       13.0416    9.9605   -7.8372 H           1 SPR         0.0000
    116 H116       13.5691   11.8052   -4.2800 H           1 SPR         0.0000
    117 C117        7.6587    6.9489   -6.2703 C.ar        1 SPR         0.0000
    118 H118        8.4915    5.0898   -6.3766 H           1 SPR         0.0000
    119 H119        7.1935    8.8994   -5.9268 H           1 SPR         0.0000
    120 C120        9.6521    0.0046    3.6531 C.ar        1 SPR         0.0000
    121 H121       10.5813   -0.5172    1.9130 H           1 SPR         0.0000
    122 H122        9.0882    0.7860    5.4465 H           1 SPR         0.0000
    123 C123       15.3144    3.1854    7.1520 C.ar        1 SPR         0.0000
    124 H124       14.6705    1.2964    7.5311 H           1 SPR         0.0000
    125 H125       15.6329    5.0679    6.4538 H           1 SPR         0.0000
    126 C126       13.0867    8.9928    4.9719 C.ar        1 SPR         0.0000
    127 H127       12.6556    7.0152    5.2348 H           1 SPR         0.0000
    128 H128       13.1261   10.9723    4.4923 H           1 SPR         0.0000
    129 H129        6.2412   12.3526    2.6448 H           1 SPR         0.0000
    130 C130        6.6951   12.0344    4.6087 C.ar        1 SPR         0.0000
    131 H131        7.4129   11.3964    6.4046 H           1 SPR         0.0000
    132 O132       14.0915   11.9951   -6.8846 O.3         1 SPR         0.0000
    133 O133        6.4883    6.7628   -6.9578 O.3         1 SPR         0.0000
    134 O134        8.6558   -0.9191    3.4566 O.3         1 SPR         0.0000
    135 O135       16.2219    3.3797    8.1726 O.3         1 SPR         0.0000
    136 O136       14.3133    9.0745    5.5868 O.3         1 SPR         0.0000
    137 O137        5.8544   13.0355    5.0161 O.3         1 SPR         0.0000
    138 C138       14.5286   13.1351   -6.1734 C.3         1 SPR         0.0000
    139 C139        6.1883    5.4574   -7.4267 C.3         1 SPR         0.0000
    140 C140        7.6588   -1.0257    4.4767 C.3         1 SPR         0.0000
    141 C141       16.4618    2.2919    9.0256 C.3         1 SPR         0.0000
    142 C142       14.7978    7.9072    6.2440 C.3         1 SPR         0.0000
    143 C143        5.7656   13.2914    6.4156 C.3         1 SPR         0.0000
    144 H144       15.2048   12.8696   -5.5140 H           1 SPR         0.0000
    145 H145       13.7663   13.5444   -5.7140 H           1 SPR         0.0000
    146 H146       14.9187   13.7809   -6.7992 H           1 SPR         0.0000
    147 H147        6.1481    4.8387   -6.6676 H           1 SPR         0.0000
    148 H148        6.8859    5.1654   -8.0492 H           1 SPR         0.0000
    149 H149        5.3233    5.4661   -7.8879 H           1 SPR         0.0000
    150 H150        8.0759   -1.3261    5.3104 H           1 SPR         0.0000
    151 H151        6.9776   -1.6738    4.2009 H           1 SPR         0.0000
    152 H152        7.2404   -0.1502    4.6170 H           1 SPR         0.0000
    153 H153       17.1453    2.5378    9.6841 H           1 SPR         0.0000
    154 H154       16.7750    1.5273    8.4992 H           1 SPR         0.0000
    155 H155       15.6330    2.0514    9.4905 H           1 SPR         0.0000
    156 H156       14.1226    7.5849    6.8764 H           1 SPR         0.0000
    157 H157       15.6226    8.1236    6.7280 H           1 SPR         0.0000
    158 H158       14.9814    7.2103    5.5794 H           1 SPR         0.0000
    159 H159        5.4702   12.4802    6.8781 H           1 SPR         0.0000
    160 H160        5.1213   14.0113    6.5758 H           1 SPR         0.0000
    161 H161        6.6444   13.5583    6.7552 H           1 SPR         0.0000
@<TRIPOS>BOND
     1    1    2     1
     2    1    3     1
     3    2    4     ar
     4    2    5     ar
     5    3    6     1
     6    3    7     1
     7    3    8     1
     8    4    9     1
     9    4   10     ar
    10    5   11     ar
    11    5   12     1
    12   10   13     ar
    13   10   14     1
    14   11   13     ar
    15   11   15     1
    16   13   16     1
    17   16   17     1
    18   16   18     1
    19   17   19     ar
    20   17   20     ar
    21   18   21     ar
    22   18   22     ar
    23   19   23     ar
    24   19   24     1
    25   20   25     ar
    26   20   26     1
    27   21   27     ar
    28   21   28     1
    29   22   29     ar
    30   22   30     1
    31   23   31     1
    32   23   32     ar
    33   25   32     ar
    34   25   33     1
    35   27   34     ar
    36   27   35     1
    37   29   34     ar
    38   29   36     1
    39   31   37     1
    40   31   38     1
    41   31   39     1
    42   32   40     ar
    43   34   41     1
    44   37   42     ar
    45   37   43     ar
    46   38   44     ar
    47   38   45     ar
    48   39   40     ar
    49   39   46     ar
    50   40   47     ar
    51   41   48     1
    52   42   44     ar
    53   42   49     ar
    54   43   50     ar
    55   43   51     1
    56   44   52     ar
    57   45   53     ar
    58   45   54     1
    59   46   55     1
    60   46   56     ar
    61   47   57     ar
    62   47   58     1
    63   48   59     1
    64   48   60     1
    65   48   61     1
    66   49   62     ar
    67   49   63     1
    68   50   62     ar
    69   50   64     1
    70   52   65     ar
    71   52   66     1
    72   53   65     ar
    73   53   67     1
    74   56   57     ar
    75   56   68     1
    76   57   69     1
    77   62   70     1
    78   64   71     1
    79   64   72     1
    80   65   73     1
    81   67   74     1
    82   67   75     1
    83   68   76     1
    84   68   77     1
    85   71   78     ar
    86   71   79     ar
    87   72   80     ar
    88   72   81     ar
    89   74   82     ar
    90   74   83     ar
    91   75   84     ar
    92   75   85     ar
    93   76   86     ar
    94   76   87     ar
    95   77   88     ar
    96   77   89     ar
    97   78   90     ar
    98   78   91     1
    99   79   92     ar
   100   79   93     1
   101   80   94     ar
   102   80   95     1
   103   81   96     ar
   104   81   97     1
   105   82   98     ar
   106   82   99     1
   107   83  100     ar
   108   83  101     1
   109   84  102     ar
   110   84  103     1
   111   85  104     ar
   112   85  105     1
   113   86  106     ar
   114   86  107     1
   115   87  108     ar
   116   87  109     1
   117   88  110     ar
   118   88  111     1
   119   89  112     ar
   120   89  113     1
   121   90  114     ar
   122   90  115     1
   123   92  114     ar
   124   92  116     1
   125   94  117     ar
   126   94  118     1
   127   96  117     ar
   128   96  119     1
   129   98  120     ar
   130   98  121     1
   131  100  120     ar
   132  100  122     1
   133  102  123     ar
   134  102  124     1
   135  104  123     ar
   136  104  125     1
   137  106  126     ar
   138  106  127     1
   139  108  126     ar
   140  108  128     1
   141  110  129     1
   142  110  130     ar
   143  112  130     ar
   144  112  131     1
   145  114  132     1
   146  117  133     1
   147  120  134     1
   148  123  135     1
   149  126  136     1
   150  130  137     1
   151  132  138     1
   152  133  139     1
   153  134  140     1
   154  135  141     1
   155  136  142     1
   156  137  143     1
   157  138  144     1
   158  138  145     1
   159  138  146     1
   160  139  147     1
   161  139  148     1
   162  139  149     1
   163  140  150     1
   164  140  151     1
   165  140  152     1
   166  141  153     1
   167  141  154     1
   168  141  155     1
   169  142  156     1
   170  142  157     1
   171  142  158     1
   172  143  159     1
   173  143  160     1
   174  143  161     1
@<TRIPOS>SUBSTRUCTURE
     1 SPR             1 TEMP              0 ****  ****    0 ROOT
