@<TRIPOS>MOLECULE
PIC
   36    40     1     0     0
SMALL
No Charge or Current Charge


@<TRIPOS>ATOM
      1 C1           7.2950     7.2580     9.4220 ca         1 PIC       0.000703
      2 C2           8.0320     6.2080     9.9910 ca         1 PIC      -0.192963
      3 C3           6.8960     8.3000    10.3120 ca         1 PIC      -0.098244
      4 C4           6.9170     7.3200     8.0150 ca         1 PIC      -0.065570
      5 C5           8.3340     6.2140    11.3670 ca         1 PIC      -0.116659
      6 H6           8.3610     5.3940     9.3710 ha         1 PIC       0.209956
      7 C7           7.1570     8.2750    11.7090 ca         1 PIC      -0.111733
      8 C8           6.1590     9.3420     9.7480 ca         1 PIC      -0.062088
      9 C9           6.1870     8.3890     7.5150 ca         1 PIC       0.016934
     10 C10          7.3460     6.2640     7.1450 ca         1 PIC      -0.087586
     11 C11          7.8750     7.2060    12.1730 ca         1 PIC      -0.202284
     12 H12          8.9420     5.4160    11.7930 ha         1 PIC       0.231610
     13 H13          6.8060     9.0430    12.3790 ha         1 PIC       0.237891
     14 C14          5.8490     9.4310     8.4180 ca         1 PIC      -0.193535
     15 H15          5.8010    10.1380    10.4020 ha         1 PIC       0.227005
     16 C16          5.8340     8.4010     6.1300 ca         1 PIC       0.025618
     17 C17          6.9880     6.2460     5.7860 ca         1 PIC      -0.126038
     18 H18          7.9560     5.4690     7.5380 ha         1 PIC       0.236620
     19 H19          8.0850     7.1520    13.2210 ha         1 PIC       0.226489
     20 H20          5.3390    10.3160     8.0520 ha         1 PIC       0.225928
     21 C21          6.2330     7.3570     5.3070 ca         1 PIC      -0.036716
     22 C22          5.0920     9.4640     5.5900 ca         1 PIC      -0.197260
     23 H23          7.2780     5.4270     5.1310 ha         1 PIC       0.248150
     24 C24          5.8290     7.3830     3.8850 ca         1 PIC      -0.011074
     25 C25          4.7310     9.5040     4.2730 ca         1 PIC      -0.040752
     26 H26          4.7910    10.2670     6.2380 ha         1 PIC       0.229220
     27 C27          5.0720     8.4480     3.3790 ca         1 PIC      -0.110318
     28 C28          6.1780     6.3800     2.9990 ca         1 PIC      -0.185018
     29 H29          4.1610    10.3480     3.9100 ha         1 PIC       0.235741
     30 C30          4.6550     8.5280     2.0380 ca         1 PIC      -0.108835
     31 C31          5.7620     6.4420     1.6540 ca         1 PIC      -0.118100
     32 H32          6.7930     5.5560     3.3310 ha         1 PIC       0.212271
     33 C33          5.0160     7.5050     1.2080 ca         1 PIC      -0.199744
     34 H34          4.0740     9.3640     1.6770 ha         1 PIC       0.235163
     35 H35          6.0210     5.6410     0.9810 ha         1 PIC       0.233884
     36 H36          4.7170     7.5370     0.1760 ha         1 PIC       0.231333
@<TRIPOS>BOND
     1     1     2 ar  
     2     1     3 ar  
     3     1     4 ar  
     4     2     5 ar  
     5     2     6 1   
     6     3     7 ar  
     7     3     8 ar  
     8     4     9 ar  
     9     4    10 ar  
    10     5    11 ar  
    11     5    12 1   
    12     7    11 ar  
    13     7    13 1   
    14     8    14 ar  
    15     8    15 1   
    16     9    14 ar  
    17     9    16 ar  
    18    10    17 ar  
    19    10    18 1   
    20    11    19 1   
    21    14    20 1   
    22    16    21 ar  
    23    16    22 ar  
    24    17    21 ar  
    25    17    23 1   
    26    21    24 ar  
    27    22    25 ar  
    28    22    26 1   
    29    24    27 ar  
    30    24    28 ar  
    31    25    27 ar  
    32    25    29 1   
    33    27    30 ar  
    34    28    31 ar  
    35    28    32 1   
    36    30    33 ar  
    37    30    34 1   
    38    31    33 ar  
    39    31    35 1   
    40    33    36 1   
@<TRIPOS>SUBSTRUCTURE
     1 PIC         1 TEMP              0 ****  ****    0 ROOT
