@<TRIPOS>MOLECULE
BTB
   64    69     1     0     0
SMALL
bcc


@<TRIPOS>ATOM
      1 S1           4.3840     4.9920    68.8040 sx         1 BTB      -0.308800
      2 C2           3.2850     5.4960    67.5040 ca         1 BTB       0.136500
      3 C3           2.1030     6.0610    69.4080 cx         1 BTB       0.285900
      4 C4           3.2350     5.5930    69.9640 ce         1 BTB      -0.329400
      5 C5           3.5500     5.2300    66.1410 ca         1 BTB      -0.097000
      6 C6           2.1150     6.0660    67.9450 ca         1 BTB      -0.026300
      7 S7           0.9380     6.6410    70.5530 ss         1 BTB       0.140000
      8 C8           3.2030     5.6210    71.4130 ca         1 BTB      -0.025800
      9 C9           2.6020     5.6370    65.2290 ca         1 BTB      -0.067300
     10 H10          4.3280     4.7890    65.8880 ha         1 BTB       0.138000
     11 C11          1.1530     6.4860    67.0170 ca         1 BTB      -0.094000
     12 C12          1.9970     6.1270    71.8510 ca         1 BTB      -0.071100
     13 C13          4.1400     5.1610    72.3640 ca         1 BTB      -0.097000
     14 C14          1.4320     6.2920    65.6590 ca         1 BTB      -0.126000
     15 C15          2.7810     5.3300    63.7370 c3         1 BTB      -0.038100
     16 H16          0.3510     6.8560    67.3120 ha         1 BTB       0.138000
     17 C17          1.6760     6.1990    73.2240 ca         1 BTB      -0.086000
     18 C18          3.8340     5.2400    73.7250 ca         1 BTB      -0.119000
     19 H19          4.9370     4.7780    72.0780 ha         1 BTB       0.139000
     20 H20          0.8440     6.6570    65.0390 ha         1 BTB       0.134000
     21 C21          3.9490     6.0430    63.0970 c3         1 BTB      -0.076400
     22 H22          2.8900     4.3670    63.6970 hc         1 BTB       0.049200
     23 H23          1.9450     5.5730    63.3090 hc         1 BTB       0.049200
     24 C24          2.6220     5.7940    74.1540 cp         1 BTB      -0.029000
     25 H25          0.8580     6.5460    73.4970 ha         1 BTB       0.142000
     26 H26          4.4590     4.9570    74.3530 ha         1 BTB       0.138000
     27 C27          4.1680     5.5330    61.6410 c3         1 BTB      -0.079400
     28 H28          3.8110     6.9990    63.0140 hc         1 BTB       0.045200
     29 H29          4.7840     5.8820    63.5630 hc         1 BTB       0.045200
     30 C30          2.3010     5.8010    75.6180 cp         1 BTB      -0.040000
     31 C31          5.3700     6.1220    60.9530 c3         1 BTB      -0.079400
     32 H32          3.3470     5.7260    61.1620 hc         1 BTB       0.039700
     33 H33          4.2770     4.5730    61.7210 hc         1 BTB       0.039700
     34 C34          1.3110     6.6310    76.1120 ca         1 BTB      -0.118000
     35 C35          2.9290     4.9710    76.5140 ca         1 BTB      -0.118000
     36 C36          5.5500     5.5860    59.5060 c3         1 BTB      -0.079400
     37 H37          5.2530     7.0800    60.8610 hc         1 BTB       0.040700
     38 H38          6.1880     5.9430    61.4440 hc         1 BTB       0.040700
     39 C39          0.9630     6.6520    77.4510 ca         1 BTB      -0.130000
     40 H40          0.8830     7.2300    75.5430 ha         1 BTB       0.135000
     41 C41          2.6060     5.0350    77.8860 ca         1 BTB      -0.130000
     42 H42          3.6160     4.4230    76.2100 ha         1 BTB       0.135000
     43 C43          6.7820     6.1150    58.7970 c3         1 BTB      -0.079400
     44 H44          4.7270     5.7680    59.0270 hc         1 BTB       0.039700
     45 H45          5.6550     4.6270    59.6100 hc         1 BTB       0.039700
     46 C46          1.6310     5.8560    78.3380 ca         1 BTB      -0.126000
     47 H47          0.2670     7.1830    77.7650 ha         1 BTB       0.132500
     48 H48          3.0490     4.4610    78.4690 ha         1 BTB       0.132500
     49 C49          6.9030     5.5420    57.3710 c3         1 BTB      -0.079400
     50 H50          6.6600     7.0720    58.6910 hc         1 BTB       0.039700
     51 H51          7.5950     5.9460    59.2980 hc         1 BTB       0.039700
     52 H52          1.4250     5.8800    79.2440 ha         1 BTB       0.132000
     53 H53          6.0850     5.7070    56.8770 hc         1 BTB       0.039700
     54 H54          7.0280     4.5860    57.4820 hc         1 BTB       0.039700
     55 C55          8.0580     6.1440    56.6190 c3         1 BTB      -0.079400
     56 C56          8.2120     5.5470    55.2040 c3         1 BTB      -0.080400
     57 H57          7.9750     7.1070    56.5340 hc         1 BTB       0.039700
     58 H58          8.8980     5.9330    57.0560 hc         1 BTB       0.039700
     59 H59          7.3970     5.8040    54.7430 hc         1 BTB       0.038700
     60 C60          9.3900     6.0660    54.4460 c3         1 BTB      -0.092100
     61 H61          8.2440     4.5810    55.2860 hc         1 BTB       0.038700
     62 H62          9.3540     7.0260    54.3750 hc         1 BTB       0.032700
     63 H63          9.3970     5.6830    53.5670 hc         1 BTB       0.032700
     64 H64         10.1920     5.8150    54.9120 hc         1 BTB       0.032700
@<TRIPOS>BOND
     1     1     2 1   
     2     1     3 1   
     3     1     4 2   
     4     2     5 ar  
     5     2     6 ar  
     6     3     4 1   
     7     3     6 1   
     8     3     7 1   
     9     4     8 1   
    10     5     9 ar  
    11     5    10 1   
    12     6    11 ar  
    13     7    12 1   
    14     8    12 ar  
    15     8    13 ar  
    16     9    14 ar  
    17     9    15 1   
    18    11    14 ar  
    19    11    16 1   
    20    12    17 ar  
    21    13    18 ar  
    22    13    19 1   
    23    14    20 1   
    24    15    21 1   
    25    15    22 1   
    26    15    23 1   
    27    17    24 ar  
    28    17    25 1   
    29    18    24 ar  
    30    18    26 1   
    31    21    27 1   
    32    21    28 1   
    33    21    29 1   
    34    24    30 1   
    35    27    31 1   
    36    27    32 1   
    37    27    33 1   
    38    30    34 ar  
    39    30    35 ar  
    40    31    36 1   
    41    31    37 1   
    42    31    38 1   
    43    34    39 ar  
    44    34    40 1   
    45    35    41 ar  
    46    35    42 1   
    47    36    43 1   
    48    36    44 1   
    49    36    45 1   
    50    39    46 ar  
    51    39    47 1   
    52    41    46 ar  
    53    41    48 1   
    54    43    49 1   
    55    43    50 1   
    56    43    51 1   
    57    46    52 1   
    58    49    53 1   
    59    49    54 1   
    60    49    55 1   
    61    55    56 1   
    62    55    57 1   
    63    55    58 1   
    64    56    59 1   
    65    56    60 1   
    66    56    61 1   
    67    60    62 1   
    68    60    63 1   
    69    60    64 1   
@<TRIPOS>SUBSTRUCTURE
     1 BTB         1 TEMP              0 ****  ****    0 ROOT
