@<TRIPOS>MOLECULE
BTB
 64 69 1 0 0
SMALL
USER_CHARGES


@<TRIPOS>ATOM
      1 S1          4.3838    4.9923   68.8040 S.3         1 BTB         0.0000
      2 C2          3.2847    5.4957   67.5039 C.ar        1 BTB         0.0000
      3 C3          2.1029    6.0612   69.4082 C.3         1 BTB         0.0000
      4 C4          3.2353    5.5934   69.9636 C.ar        1 BTB         0.0000
      5 C5          3.5499    5.2304   66.1407 C.ar        1 BTB         0.0000
      6 C6          2.1153    6.0658   67.9447 C.ar        1 BTB         0.0000
      7 S7          0.9384    6.6414   70.5529 S.3         1 BTB         0.0000
      8 C8          3.2025    5.6214   71.4133 C.ar        1 BTB         0.0000
      9 C9          2.6021    5.6369   65.2288 C.ar        1 BTB         0.0000
     10 H10         4.3280    4.7892   65.8876 H           1 BTB         0.0000
     11 C11         1.1526    6.4862   67.0175 C.ar        1 BTB         0.0000
     12 C12         1.9968    6.1271   71.8514 C.ar        1 BTB         0.0000
     13 C13         4.1397    5.1614   72.3644 C.ar        1 BTB         0.0000
     14 C14         1.4319    6.2915   65.6595 C.ar        1 BTB         0.0000
     15 C15         2.7811    5.3297   63.7372 C.3         1 BTB         0.0000
     16 H16         0.3513    6.8555   67.3119 H           1 BTB         0.0000
     17 C17         1.6762    6.1985   73.2237 C.ar        1 BTB         0.0000
     18 C18         3.8341    5.2397   73.7250 C.ar        1 BTB         0.0000
     19 H19         4.9372    4.7777   72.0779 H           1 BTB         0.0000
     20 H20         0.8439    6.6571   65.0389 H           1 BTB         0.0000
     21 C21         3.9488    6.0425   63.0970 C.3         1 BTB         0.0000
     22 H22         2.8904    4.3666   63.6969 H           1 BTB         0.0000
     23 H23         1.9451    5.5731   63.3091 H           1 BTB         0.0000
     24 C24         2.6224    5.7936   74.1536 C.ar        1 BTB         0.0000
     25 H25         0.8581    6.5458   73.4974 H           1 BTB         0.0000
     26 H26         4.4587    4.9567   74.3535 H           1 BTB         0.0000
     27 C27         4.1682    5.5329   61.6414 C.3         1 BTB         0.0000
     28 H28         3.8106    6.9993   63.0142 H           1 BTB         0.0000
     29 H29         4.7843    5.8824   63.5627 H           1 BTB         0.0000
     30 C30         2.3009    5.8013   75.6181 C.ar        1 BTB         0.0000
     31 C31         5.3700    6.1217   60.9534 C.3         1 BTB         0.0000
     32 H32         3.3472    5.7257   61.1624 H           1 BTB         0.0000
     33 H33         4.2767    4.5726   61.7215 H           1 BTB         0.0000
     34 C34         1.3106    6.6313   76.1120 C.ar        1 BTB         0.0000
     35 C35         2.9285    4.9713   76.5140 C.ar        1 BTB         0.0000
     36 C36         5.5502    5.5857   59.5064 C.3         1 BTB         0.0000
     37 H37         5.2528    7.0804   60.8606 H           1 BTB         0.0000
     38 H38         6.1878    5.9431   61.4436 H           1 BTB         0.0000
     39 C39         0.9627    6.6515   77.4508 C.ar        1 BTB         0.0000
     40 H40         0.8832    7.2300   75.5433 H           1 BTB         0.0000
     41 C41         2.6061    5.0349   77.8858 C.ar        1 BTB         0.0000
     42 H42         3.6163    4.4235   76.2101 H           1 BTB         0.0000
     43 C43         6.7822    6.1155   58.7966 C.3         1 BTB         0.0000
     44 H44         4.7272    5.7675   59.0269 H           1 BTB         0.0000
     45 H45         5.6555    4.6272   59.6103 H           1 BTB         0.0000
     46 C46         1.6307    5.8564   78.3377 C.ar        1 BTB         0.0000
     47 H47         0.2673    7.1830   77.7654 H           1 BTB         0.0000
     48 H48         3.0494    4.4614   78.4687 H           1 BTB         0.0000
     49 C49         6.9032    5.5415   57.3708 C.3         1 BTB         0.0000
     50 H50         6.6603    7.0720   58.6911 H           1 BTB         0.0000
     51 H51         7.5948    5.9458   59.2984 H           1 BTB         0.0000
     52 H52         1.4250    5.8798   79.2442 H           1 BTB         0.0000
     53 H53         6.0846    5.7066   56.8775 H           1 BTB         0.0000
     54 H54         7.0276    4.5862   57.4817 H           1 BTB         0.0000
     55 C55         8.0583    6.1442   56.6186 C.3         1 BTB         0.0000
     56 C56         8.2120    5.5469   55.2039 C.3         1 BTB         0.0000
     57 H57         7.9749    7.1072   56.5338 H           1 BTB         0.0000
     58 H58         8.8979    5.9333   57.0557 H           1 BTB         0.0000
     59 H59         7.3970    5.8044   54.7435 H           1 BTB         0.0000
     60 C60         9.3903    6.0658   54.4459 C.3         1 BTB         0.0000
     61 H61         8.2443    4.5810   55.2856 H           1 BTB         0.0000
     62 H62         9.3536    7.0258   54.3749 H           1 BTB         0.0000
     63 H63         9.3972    5.6833   53.5670 H           1 BTB         0.0000
     64 H64        10.1921    5.8151   54.9117 H           1 BTB         0.0000
@<TRIPOS>BOND
     1    1    2     1
     2    1    3     1
     3    1    4     1
     4    2    5     ar
     5    2    6     ar
     6    3    4     1
     7    3    6     1
     8    3    7     1
     9    4    8     ar
    10    5    9     ar
    11    5   10     1
    12    6   11     ar
    13    7   12     1
    14    8   12     ar
    15    8   13     ar
    16    9   14     ar
    17    9   15     1
    18   11   14     ar
    19   11   16     1
    20   12   17     ar
    21   13   18     ar
    22   13   19     1
    23   14   20     1
    24   15   21     1
    25   15   22     1
    26   15   23     1
    27   17   24     ar
    28   17   25     1
    29   18   24     ar
    30   18   26     1
    31   21   27     1
    32   21   28     1
    33   21   29     1
    34   24   30     ar
    35   27   31     1
    36   27   32     1
    37   27   33     1
    38   30   34     ar
    39   30   35     ar
    40   31   36     1
    41   31   37     1
    42   31   38     1
    43   34   39     ar
    44   34   40     1
    45   35   41     ar
    46   35   42     1
    47   36   43     1
    48   36   44     1
    49   36   45     1
    50   39   46     ar
    51   39   47     1
    52   41   46     ar
    53   41   48     1
    54   43   49     1
    55   43   50     1
    56   43   51     1
    57   46   52     1
    58   49   53     1
    59   49   54     1
    60   49   55     1
    61   55   56     1
    62   55   57     1
    63   55   58     1
    64   56   59     1
    65   56   60     1
    66   56   61     1
    67   60   62     1
    68   60   63     1
    69   60   64     1
@<TRIPOS>SUBSTRUCTURE
     1 BTB             1 TEMP              0 ****  ****    0 ROOT
