@<TRIPOS>MOLECULE
PEN
 36 40 1 0 0
SMALL
USER_CHARGES


@<TRIPOS>ATOM
      1 C1         10.4327   29.0733   63.2440 C.ar        1 PEN         0.0000
      2 C2          9.4484   29.0782   64.2631 C.ar        1 PEN         0.0000
      3 C3         11.6768   28.3441   63.4760 C.ar        1 PEN         0.0000
      4 C4         10.2621   29.7534   62.0309 C.ar        1 PEN         0.0000
      5 C5          9.6440   28.4189   65.4636 C.ar        1 PEN         0.0000
      6 H6          8.6341   29.5458   64.1183 H           1 PEN         0.0000
      7 C7         11.8473   27.6674   64.7003 C.ar        1 PEN         0.0000
      8 C8         12.6526   28.3390   62.4723 C.ar        1 PEN         0.0000
      9 C9         11.2379   29.7482   61.0273 C.ar        1 PEN         0.0000
     10 H10         9.4485   30.2258   61.9002 H           1 PEN         0.0000
     11 C11         8.6598   28.4358   66.5010 C.ar        1 PEN         0.0000
     12 C12        10.8747   27.6946   65.6899 C.ar        1 PEN         0.0000
     13 H13        12.6485   27.1799   64.8521 H           1 PEN         0.0000
     14 H14        13.4662   27.8665   62.6030 H           1 PEN         0.0000
     15 C15        12.4820   29.0191   61.2592 C.ar        1 PEN         0.0000
     16 C16        11.0675   30.4249   59.8029 C.ar        1 PEN         0.0000
     17 C17         8.8710   27.7922   67.6733 C.ar        1 PEN         0.0000
     18 H18         7.8451   28.9046   66.3646 H           1 PEN         0.0000
     19 C19        11.0465   27.0348   66.9438 C.ar        1 PEN         0.0000
     20 C20        13.4664   29.0142   60.2401 C.ar        1 PEN         0.0000
     21 C21        12.0400   30.3977   58.8133 C.ar        1 PEN         0.0000
     22 H22        10.2663   30.9125   59.6511 H           1 PEN         0.0000
     23 C23        10.0888   27.0778   67.9024 C.ar        1 PEN         0.0000
     24 H24         8.2045   27.8155   68.3495 H           1 PEN         0.0000
     25 H25        11.8491   26.5536   67.1096 H           1 PEN         0.0000
     26 H26        14.2807   28.5465   60.3849 H           1 PEN         0.0000
     27 C27        13.2707   29.6734   59.0396 C.ar        1 PEN         0.0000
     28 C28        11.8682   31.0576   57.5594 C.ar        1 PEN         0.0000
     29 H29        10.2272   26.6327   68.7304 H           1 PEN         0.0000
     30 C30        14.2550   29.6566   58.0022 C.ar        1 PEN         0.0000
     31 C31        12.8259   31.0146   56.6008 C.ar        1 PEN         0.0000
     32 H32        11.0656   31.5388   57.3936 H           1 PEN         0.0000
     33 C33        14.0438   30.3001   56.8299 C.ar        1 PEN         0.0000
     34 H34        15.0697   29.1877   58.1386 H           1 PEN         0.0000
     35 H35        12.6875   31.4596   55.7728 H           1 PEN         0.0000
     36 H36        14.7103   30.2769   56.1538 H           1 PEN         0.0000
@<TRIPOS>BOND
     1    1    2     ar
     2    1    3     ar
     3    1    4     ar
     4    2    5     ar
     5    2    6     1
     6    3    7     ar
     7    3    8     ar
     8    4    9     ar
     9    4   10     1
    10    5   11     ar
    11    5   12     ar
    12    7   12     ar
    13    7   13     1
    14    8   14     1
    15    8   15     ar
    16    9   15     ar
    17    9   16     ar
    18   11   17     ar
    19   11   18     1
    20   12   19     ar
    21   15   20     ar
    22   16   21     ar
    23   16   22     1
    24   17   23     ar
    25   17   24     1
    26   19   23     ar
    27   19   25     1
    28   20   26     1
    29   20   27     ar
    30   21   27     ar
    31   21   28     ar
    32   23   29     1
    33   27   30     ar
    34   28   31     ar
    35   28   32     1
    36   30   33     ar
    37   30   34     1
    38   31   33     ar
    39   31   35     1
    40   33   36     1
@<TRIPOS>SUBSTRUCTURE
     1 PEN             1 TEMP              0 ****  ****    0 ROOT
