@<TRIPOS>MOLECULE
PEN
   36    40     1     0     0
SMALL
bcc


@<TRIPOS>ATOM
      1 C1          16.9730    50.2880   103.2340 ca         1 PEN      -0.029000
      2 C2          16.8170    50.4080   101.8420 ca         1 PEN      -0.107000
      3 C3          15.9920    49.7310   104.0650 ca         1 PEN      -0.107000
      4 C4          18.2040    50.7760   103.8380 ca         1 PEN      -0.029000
      5 H5          16.0150    50.0900   101.4420 ha         1 PEN       0.134000
      6 C6          17.7930    50.9730   101.0330 ca         1 PEN      -0.032000
      7 H7          15.1780    49.4140   103.6920 ha         1 PEN       0.135000
      8 C8          16.1710    49.6290   105.4520 ca         1 PEN      -0.029000
      9 C9          19.1960    51.3480   103.0060 ca         1 PEN      -0.107000
     10 C10         18.3830    50.6750   105.2260 ca         1 PEN      -0.107000
     11 C11         19.0170    51.4490   101.6310 ca         1 PEN      -0.032000
     12 C12         17.6290    51.0980    99.6100 ca         1 PEN      -0.118000
     13 C13         15.1790    49.0580   106.2840 ca         1 PEN      -0.107000
     14 C14         17.4020    50.1170   106.0560 ca         1 PEN      -0.029000
     15 H15         20.0010    51.6690   103.3950 ha         1 PEN       0.134000
     16 H16         19.1970    50.9920   105.5980 ha         1 PEN       0.135000
     17 C17         20.0130    52.0350   100.7680 ca         1 PEN      -0.118000
     18 H18         16.8290    50.7920    99.1980 ha         1 PEN       0.132000
     19 C19         18.6080    51.6500    98.8480 ca         1 PEN      -0.126000
     20 C20         15.3580    48.9560   107.6590 ca         1 PEN      -0.032000
     21 H21         14.3740    48.7360   105.8950 ha         1 PEN       0.134000
     22 C22         17.5580    49.9980   107.4480 ca         1 PEN      -0.107000
     23 C23         19.8150    52.1320    99.4330 ca         1 PEN      -0.126000
     24 H24         20.8230    52.3590   101.1440 ha         1 PEN       0.132000
     25 H25         18.4870    51.7140    97.9080 ha         1 PEN       0.132000
     26 C26         14.3620    48.3710   108.5220 ca         1 PEN      -0.118000
     27 C27         16.5830    49.4320   108.2580 ca         1 PEN      -0.032000
     28 H28         18.3600    50.3150   107.8490 ha         1 PEN       0.134000
     29 H29         20.4840    52.5240    98.8830 ha         1 PEN       0.132000
     30 C30         14.5600    48.2730   109.8570 ca         1 PEN      -0.126000
     31 H31         13.5520    48.0470   108.1470 ha         1 PEN       0.132000
     32 C32         16.7460    49.3070   109.6800 ca         1 PEN      -0.118000
     33 C33         15.7670    48.7560   110.4420 ca         1 PEN      -0.126000
     34 H34         13.8920    47.8820   110.4070 ha         1 PEN       0.132000
     35 H35         17.5460    49.6140   110.0920 ha         1 PEN       0.132000
     36 H36         15.8890    48.6910   111.3830 ha         1 PEN       0.132000
@<TRIPOS>BOND
     1     1     2 ar  
     2     1     3 ar  
     3     1     4 ar  
     4     2     5 1   
     5     2     6 ar  
     6     3     7 1   
     7     3     8 ar  
     8     4     9 ar  
     9     4    10 ar  
    10     6    11 ar  
    11     6    12 ar  
    12     8    13 ar  
    13     8    14 ar  
    14     9    11 ar  
    15     9    15 1   
    16    10    14 ar  
    17    10    16 1   
    18    11    17 ar  
    19    12    18 1   
    20    12    19 ar  
    21    13    20 ar  
    22    13    21 1   
    23    14    22 ar  
    24    17    23 ar  
    25    17    24 1   
    26    19    23 ar  
    27    19    25 1   
    28    20    26 ar  
    29    20    27 ar  
    30    22    27 ar  
    31    22    28 1   
    32    23    29 1   
    33    26    30 ar  
    34    26    31 1   
    35    27    32 ar  
    36    30    33 ar  
    37    30    34 1   
    38    32    33 ar  
    39    32    35 1   
    40    33    36 1   
@<TRIPOS>SUBSTRUCTURE
     1 PEN         1 TEMP              0 ****  ****    0 ROOT
