@<TRIPOS>MOLECULE
PEN
 36 40 1 0 0
SMALL
USER_CHARGES


@<TRIPOS>ATOM
      1 C1         16.9730   50.2885  103.2339 C.ar        1 PEN         0.0000
      2 C2         16.8166   50.4079  101.8422 C.ar        1 PEN         0.0000
      3 C3         15.9919   49.7312  104.0646 C.ar        1 PEN         0.0000
      4 C4         18.2039   50.7764  103.8383 C.ar        1 PEN         0.0000
      5 H5         16.0152   50.0903  101.4416 H           1 PEN         0.0000
      6 C6         17.7925   50.9732  101.0326 C.ar        1 PEN         0.0000
      7 H7         15.1784   49.4140  103.6921 H           1 PEN         0.0000
      8 C8         16.1713   49.6292  105.4520 C.ar        1 PEN         0.0000
      9 C9         19.1958   51.3480  103.0061 C.ar        1 PEN         0.0000
     10 C10        18.3832   50.6745  105.2257 C.ar        1 PEN         0.0000
     11 C11        19.0171   51.4491  101.6314 C.ar        1 PEN         0.0000
     12 C12        17.6287   51.0984   99.6100 C.ar        1 PEN         0.0000
     13 C13        15.1794   49.0576  106.2842 C.ar        1 PEN         0.0000
     14 C14        17.4021   50.1172  106.0565 C.ar        1 PEN         0.0000
     15 H15        20.0011   51.6691  103.3955 H           1 PEN         0.0000
     16 H16        19.1967   50.9917  105.5982 H           1 PEN         0.0000
     17 C17        20.0131   52.0349  100.7683 C.ar        1 PEN         0.0000
     18 H18        16.8289   50.7920   99.1982 H           1 PEN         0.0000
     19 C19        18.6077   51.6495   98.8481 C.ar        1 PEN         0.0000
     20 C20        15.3580   48.9565  107.6590 C.ar        1 PEN         0.0000
     21 H21        14.3740   48.7365  105.8948 H           1 PEN         0.0000
     22 C22        17.5585   49.9977  107.4481 C.ar        1 PEN         0.0000
     23 C23        19.8151   52.1322   99.4329 C.ar        1 PEN         0.0000
     24 H24        20.8229   52.3589  101.1436 H           1 PEN         0.0000
     25 H25        18.4866   51.7144   97.9077 H           1 PEN         0.0000
     26 C26        14.3620   48.3707  108.5220 C.ar        1 PEN         0.0000
     27 C27        16.5826   49.4325  108.2578 C.ar        1 PEN         0.0000
     28 H28        18.3599   50.3154  107.8487 H           1 PEN         0.0000
     29 H29        20.4836   52.5239   98.8833 H           1 PEN         0.0000
     30 C30        14.5600   48.2735  109.8574 C.ar        1 PEN         0.0000
     31 H31        13.5522   48.0467  108.1467 H           1 PEN         0.0000
     32 C32        16.7464   49.3072  109.6803 C.ar        1 PEN         0.0000
     33 C33        15.7674   48.7561  110.4422 C.ar        1 PEN         0.0000
     34 H34        13.8916   47.8818  110.4071 H           1 PEN         0.0000
     35 H35        17.5462   49.6136  110.0922 H           1 PEN         0.0000
     36 H36        15.8886   48.6912  111.3826 H           1 PEN         0.0000
@<TRIPOS>BOND
     1    1    2     ar
     2    1    3     ar
     3    1    4     ar
     4    2    5     1
     5    2    6     ar
     6    3    7     1
     7    3    8     ar
     8    4    9     ar
     9    4   10     ar
    10    6   11     ar
    11    6   12     ar
    12    8   13     ar
    13    8   14     ar
    14    9   11     ar
    15    9   15     1
    16   10   14     ar
    17   10   16     1
    18   11   17     ar
    19   12   18     1
    20   12   19     ar
    21   13   20     ar
    22   13   21     1
    23   14   22     ar
    24   17   23     ar
    25   17   24     1
    26   19   23     ar
    27   19   25     1
    28   20   26     ar
    29   20   27     ar
    30   22   27     ar
    31   22   28     1
    32   23   29     1
    33   26   30     ar
    34   26   31     1
    35   27   32     ar
    36   30   33     ar
    37   30   34     1
    38   32   33     ar
    39   32   35     1
    40   33   36     1
@<TRIPOS>SUBSTRUCTURE
     1 PEN             1 TEMP              0 ****  ****    0 ROOT
