@<TRIPOS>MOLECULE
QUC
   36    40     1     0     0
SMALL
bcc


@<TRIPOS>ATOM
      1 O1           2.5890     2.5900    -0.0020 o          1 QUC      -0.558100
      2 O2          -2.5890    -2.5890    -0.0020 o          1 QUC      -0.558100
      3 N1           2.4050    -1.4550    -0.0010 na         1 QUC      -0.622000
      4 N2          -2.4050     1.4550    -0.0020 na         1 QUC      -0.622000
      5 C1           1.2210     0.6670    -0.0020 ca         1 QUC      -0.149600
      6 C2          -1.2200    -0.6670    -0.0020 ca         1 QUC      -0.149600
      7 C3           1.2010    -0.7380    -0.0020 ca         1 QUC       0.154600
      8 C4          -1.2010     0.7380    -0.0020 ca         1 QUC       0.154600
      9 C5           0.0300     1.4020    -0.0020 ca         1 QUC      -0.115000
     10 C6          -0.0300    -1.4020    -0.0020 ca         1 QUC      -0.115000
     11 C7           3.7750     0.5510     0.0000 ca         1 QUC      -0.223600
     12 C8          -3.7750    -0.5510     0.0000 ca         1 QUC      -0.223600
     13 C9           3.6680    -0.8490    -0.0000 ca         1 QUC       0.214600
     14 C10         -3.6680     0.8490    -0.0000 ca         1 QUC       0.214600
     15 C11          2.5330     1.3670    -0.0010 c          1 QUC       0.596300
     16 C12         -2.5320    -1.3670    -0.0010 c          1 QUC       0.596300
     17 C13          5.0270     1.1720     0.0020 ca         1 QUC      -0.033000
     18 C14         -5.0270    -1.1730     0.0020 ca         1 QUC      -0.033000
     19 C15          4.8360    -1.6190     0.0010 ca         1 QUC      -0.207000
     20 C16         -4.8360     1.6180     0.0010 ca         1 QUC      -0.207000
     21 C17          6.1830     0.3910     0.0030 ca         1 QUC      -0.187000
     22 C18         -6.1830    -0.3920     0.0040 ca         1 QUC      -0.187000
     23 C19          6.0880    -1.0000     0.0030 ca         1 QUC      -0.059000
     24 C20         -6.0880     1.0000     0.0030 ca         1 QUC      -0.059000
     25 H1           0.0510     2.4900    -0.0020 ha         1 QUC       0.164000
     26 H2          -0.0510    -2.4890    -0.0020 ha         1 QUC       0.164000
     27 H3           2.3600    -2.4660    -0.0030 hn         1 QUC       0.453800
     28 H4          -2.3600     2.4660    -0.0010 hn         1 QUC       0.453800
     29 H5           5.1230     2.2540     0.0020 ha         1 QUC       0.158000
     30 H6          -5.1220    -2.2550     0.0020 ha         1 QUC       0.158000
     31 H7           4.7800    -2.7040     0.0010 ha         1 QUC       0.137000
     32 H8          -4.7810     2.7040     0.0010 ha         1 QUC       0.137000
     33 H9           7.1590     0.8670     0.0040 ha         1 QUC       0.140000
     34 H10         -7.1590    -0.8680     0.0050 ha         1 QUC       0.140000
     35 H11          6.9900    -1.6050     0.0040 ha         1 QUC       0.136000
     36 H12         -6.9900     1.6040     0.0040 ha         1 QUC       0.136000
@<TRIPOS>BOND
     1     1    15 2   
     2     2    16 2   
     3     3     7 1   
     4     3    13 1   
     5     3    27 1   
     6     4     8 1   
     7     4    14 1   
     8     4    28 1   
     9     5     7 ar  
    10     5     9 ar  
    11     5    15 1   
    12     6     8 ar  
    13     6    10 ar  
    14     6    16 1   
    15     7    10 ar  
    16     8     9 ar  
    17     9    25 1   
    18    10    26 1   
    19    11    13 ar  
    20    11    15 1   
    21    11    17 ar  
    22    12    14 ar  
    23    12    16 1   
    24    12    18 ar  
    25    13    19 ar  
    26    14    20 ar  
    27    17    21 ar  
    28    17    29 1   
    29    18    22 ar  
    30    18    30 1   
    31    19    23 ar  
    32    19    31 1   
    33    20    24 ar  
    34    20    32 1   
    35    21    23 ar  
    36    21    33 1   
    37    22    24 ar  
    38    22    34 1   
    39    23    35 1   
    40    24    36 1   
@<TRIPOS>SUBSTRUCTURE
     1 QUC         1 TEMP              0 ****  ****    0 ROOT
