@<TRIPOS>MOLECULE
PDI
   40    46     1     0     0
SMALL
bcc


@<TRIPOS>ATOM
      1 O1           5.6590     2.3000     0.0040 o          1 PDI      -0.604500
      2 O2          -5.6590     2.3000    -0.0010 o          1 PDI      -0.604500
      3 O3           5.6590    -2.3000    -0.0030 o          1 PDI      -0.604500
      4 O4          -5.6590    -2.3000     0.0040 o          1 PDI      -0.604500
      5 N1           5.6600     0.0000     0.0010 ns         1 PDI      -0.587500
      6 N2          -5.6600     0.0000     0.0020 ns         1 PDI      -0.587500
      7 C1           1.4280     0.0000    -0.0010 ca         1 PDI      -0.032000
      8 C2          -1.4280     0.0000    -0.0010 ca         1 PDI      -0.032000
      9 C3           0.7170     1.2300    -0.0010 ca         1 PDI       0.010000
     10 C4          -0.7170     1.2300    -0.0010 ca         1 PDI       0.010000
     11 C5           0.7170    -1.2300    -0.0010 ca         1 PDI       0.010000
     12 C6          -0.7170    -1.2300    -0.0000 ca         1 PDI       0.010000
     13 C7           2.8630     0.0000    -0.0000 ca         1 PDI       0.018000
     14 C8          -2.8630     0.0000    -0.0010 ca         1 PDI       0.018000
     15 C9           3.5600     1.2150     0.0010 ca         1 PDI      -0.143600
     16 C10         -3.5600     1.2150    -0.0010 ca         1 PDI      -0.143600
     17 C11          3.5600    -1.2150    -0.0010 ca         1 PDI      -0.143600
     18 C12         -3.5600    -1.2150     0.0000 ca         1 PDI      -0.143600
     19 C13          1.4830     2.4200     0.0000 ca         1 PDI      -0.128000
     20 C14         -1.4830     2.4200    -0.0020 ca         1 PDI      -0.128000
     21 C15          1.4840    -2.4200    -0.0010 ca         1 PDI      -0.128000
     22 C16         -1.4830    -2.4200     0.0010 ca         1 PDI      -0.128000
     23 C17          2.8750     2.4210     0.0010 ca         1 PDI      -0.041000
     24 C18         -2.8750     2.4210    -0.0020 ca         1 PDI      -0.041000
     25 C19          2.8750    -2.4210    -0.0010 ca         1 PDI      -0.041000
     26 C20         -2.8750    -2.4210     0.0010 ca         1 PDI      -0.041000
     27 C21          5.0400     1.2400     0.0020 c          1 PDI       0.719100
     28 C22         -5.0400     1.2400    -0.0010 c          1 PDI       0.719100
     29 C23          5.0400    -1.2400    -0.0010 c          1 PDI       0.719100
     30 C24         -5.0400    -1.2400     0.0020 c          1 PDI       0.719100
     31 H1           1.0130     3.4000     0.0010 ha         1 PDI       0.147000
     32 H2          -1.0130     3.4000    -0.0030 ha         1 PDI       0.147000
     33 H3           1.0130    -3.4000    -0.0020 ha         1 PDI       0.147000
     34 H4          -1.0130    -3.4000     0.0010 ha         1 PDI       0.147000
     35 H5           3.3960     3.3740     0.0020 ha         1 PDI       0.170000
     36 H6          -3.3960     3.3740    -0.0030 ha         1 PDI       0.170000
     37 H7           3.3960    -3.3740    -0.0020 ha         1 PDI       0.170000
     38 H8          -3.3960    -3.3740     0.0020 ha         1 PDI       0.170000
     39 H9           6.6760    -0.0000     0.0020 hn         1 PDI       0.345500
     40 H10         -6.6760     0.0000     0.0020 hn         1 PDI       0.345500
@<TRIPOS>BOND
     1     1    27 2   
     2     2    28 2   
     3     3    29 2   
     4     4    30 2   
     5     5    27 1   
     6     5    29 1   
     7     5    39 1   
     8     6    28 1   
     9     6    30 1   
    10     6    40 1   
    11     7     9 ar  
    12     7    11 ar  
    13     7    13 ar  
    14     8    10 ar  
    15     8    12 ar  
    16     8    14 ar  
    17     9    10 ar  
    18     9    19 ar  
    19    10    20 ar  
    20    11    12 ar  
    21    11    21 ar  
    22    12    22 ar  
    23    13    15 ar  
    24    13    17 ar  
    25    14    16 ar  
    26    14    18 ar  
    27    15    23 ar  
    28    15    27 1   
    29    16    24 ar  
    30    16    28 1   
    31    17    25 ar  
    32    17    29 1   
    33    18    26 ar  
    34    18    30 1   
    35    19    23 ar  
    36    19    31 1   
    37    20    24 ar  
    38    20    32 1   
    39    21    25 ar  
    40    21    33 1   
    41    22    26 ar  
    42    22    34 1   
    43    23    35 1   
    44    24    36 1   
    45    25    37 1   
    46    26    38 1   
@<TRIPOS>SUBSTRUCTURE
     1 PDI         1 TEMP              0 ****  ****    0 ROOT
