@<TRIPOS>MOLECULE
THF
   13    13     1     0     0
SMALL
bcc


@<TRIPOS>ATOM
      1 O1           1.2330    -0.0010     0.0000 os         1 THF      -0.427600
      2 C1          -1.0110    -0.7200    -0.2210 c5         1 THF      -0.106400
      3 C2          -1.0100     0.7210     0.2210 c5         1 THF      -0.106400
      4 C3           0.3940    -1.1560     0.1370 c5         1 THF       0.127400
      5 C4           0.3950     1.1560    -0.1380 c5         1 THF       0.127400
      6 H1          -1.7820    -1.3280     0.2590 hc         1 THF       0.051700
      7 H2          -1.1540    -0.7760    -1.3060 hc         1 THF       0.051700
      8 H3          -1.7810     1.3290    -0.2590 hc         1 THF       0.051700
      9 H4          -1.1540     0.7770     1.3060 hc         1 THF       0.051700
     10 H5           0.4520    -1.4890     1.1790 h1         1 THF       0.044700
     11 H6           0.7620    -1.9590    -0.5070 h1         1 THF       0.044700
     12 H7           0.4530     1.4880    -1.1790 h1         1 THF       0.044700
     13 H8           0.7640     1.9580     0.5070 h1         1 THF       0.044700
@<TRIPOS>BOND
     1     1     4 1   
     2     1     5 1   
     3     2     3 1   
     4     2     4 1   
     5     2     6 1   
     6     2     7 1   
     7     3     5 1   
     8     3     8 1   
     9     3     9 1   
    10     4    10 1   
    11     4    11 1   
    12     5    12 1   
    13     5    13 1   
@<TRIPOS>SUBSTRUCTURE
     1 THF         1 TEMP              0 ****  ****    0 ROOT
