@<TRIPOS>MOLECULE
PEN
 36 40 1 0 0
SMALL
USER_CHARGES


@<TRIPOS>ATOM
      1 C1          9.2231   18.4630   48.7856 C.ar        1 PEN         0.0000
      2 C2          8.2387   18.4679   49.8047 C.ar        1 PEN         0.0000
      3 C3         10.4672   17.7338   49.0175 C.ar        1 PEN         0.0000
      4 C4          9.0525   19.1431   47.5725 C.ar        1 PEN         0.0000
      5 C5          8.4344   17.8086   51.0051 C.ar        1 PEN         0.0000
      6 H6          7.4244   18.9356   49.6599 H           1 PEN         0.0000
      7 C7         10.6376   17.0571   50.2419 C.ar        1 PEN         0.0000
      8 C8         11.4429   17.7287   48.0139 C.ar        1 PEN         0.0000
      9 C9         10.0283   19.1380   46.5688 C.ar        1 PEN         0.0000
     10 H10         8.2389   19.6156   47.4417 H           1 PEN         0.0000
     11 C11         7.4501   17.8255   52.0425 C.ar        1 PEN         0.0000
     12 C12         9.6650   17.0843   51.2315 C.ar        1 PEN         0.0000
     13 H13        11.4388   16.5696   50.3937 H           1 PEN         0.0000
     14 H14        12.2566   17.2562   48.1446 H           1 PEN         0.0000
     15 C15        11.2724   18.4088   46.8008 C.ar        1 PEN         0.0000
     16 C16         9.8578   19.8147   45.3445 C.ar        1 PEN         0.0000
     17 C17         7.6613   17.1820   53.2149 C.ar        1 PEN         0.0000
     18 H18         6.6354   18.2944   51.9062 H           1 PEN         0.0000
     19 C19         9.8369   16.4245   52.4853 C.ar        1 PEN         0.0000
     20 C20        12.2567   18.4039   45.7816 C.ar        1 PEN         0.0000
     21 C21        10.8304   19.7875   44.3549 C.ar        1 PEN         0.0000
     22 H22         9.0566   20.3022   45.1927 H           1 PEN         0.0000
     23 C23         8.8792   16.4675   53.4440 C.ar        1 PEN         0.0000
     24 H24         6.9948   17.2052   53.8910 H           1 PEN         0.0000
     25 H25        10.6395   15.9433   52.6512 H           1 PEN         0.0000
     26 H26        13.0710   17.9362   45.9264 H           1 PEN         0.0000
     27 C27        12.0611   19.0631   44.5812 C.ar        1 PEN         0.0000
     28 C28        10.6586   20.4473   43.1010 C.ar        1 PEN         0.0000
     29 H29         9.0176   16.0224   54.2720 H           1 PEN         0.0000
     30 C30        13.0453   19.0463   43.5438 C.ar        1 PEN         0.0000
     31 C31        11.6163   20.4043   42.1423 C.ar        1 PEN         0.0000
     32 H32         9.8560   20.9285   42.9351 H           1 PEN         0.0000
     33 C33        12.8341   19.6898   42.3715 C.ar        1 PEN         0.0000
     34 H34        13.8600   18.5774   43.6801 H           1 PEN         0.0000
     35 H35        11.4779   20.8494   41.3144 H           1 PEN         0.0000
     36 H36        13.5006   19.6666   41.6953 H           1 PEN         0.0000
@<TRIPOS>BOND
     1    1    2     ar
     2    1    3     ar
     3    1    4     ar
     4    2    5     ar
     5    2    6     1
     6    3    7     ar
     7    3    8     ar
     8    4    9     ar
     9    4   10     1
    10    5   11     ar
    11    5   12     ar
    12    7   12     ar
    13    7   13     1
    14    8   14     1
    15    8   15     ar
    16    9   15     ar
    17    9   16     ar
    18   11   17     ar
    19   11   18     1
    20   12   19     ar
    21   15   20     ar
    22   16   21     ar
    23   16   22     1
    24   17   23     ar
    25   17   24     1
    26   19   23     ar
    27   19   25     1
    28   20   26     1
    29   20   27     ar
    30   21   27     ar
    31   21   28     ar
    32   23   29     1
    33   27   30     ar
    34   28   31     ar
    35   28   32     1
    36   30   33     ar
    37   30   34     1
    38   31   33     ar
    39   31   35     1
    40   33   36     1
@<TRIPOS>SUBSTRUCTURE
     1 PEN             1 TEMP              0 ****  ****    0 ROOT
