@<TRIPOS>MOLECULE
PEN
   36    40     1     0     0
SMALL
bcc


@<TRIPOS>ATOM
      1 C1           9.2230    18.4630    48.7860 ca         1 PEN      -0.029000
      2 C2           8.2390    18.4680    49.8050 ca         1 PEN      -0.107000
      3 C3          10.4670    17.7340    49.0170 ca         1 PEN      -0.029000
      4 C4           9.0530    19.1430    47.5720 ca         1 PEN      -0.107000
      5 C5           8.4340    17.8090    51.0050 ca         1 PEN      -0.032000
      6 H6           7.4240    18.9360    49.6600 ha         1 PEN       0.134000
      7 C7          10.6380    17.0570    50.2420 ca         1 PEN      -0.107000
      8 C8          11.4430    17.7290    48.0140 ca         1 PEN      -0.107000
      9 C9          10.0280    19.1380    46.5690 ca         1 PEN      -0.029000
     10 H10          8.2390    19.6160    47.4420 ha         1 PEN       0.135000
     11 C11          7.4500    17.8260    52.0420 ca         1 PEN      -0.118000
     12 C12          9.6650    17.0840    51.2310 ca         1 PEN      -0.032000
     13 H13         11.4390    16.5700    50.3940 ha         1 PEN       0.134000
     14 H14         12.2570    17.2560    48.1450 ha         1 PEN       0.135000
     15 C15         11.2720    18.4090    46.8010 ca         1 PEN      -0.029000
     16 C16          9.8580    19.8150    45.3440 ca         1 PEN      -0.107000
     17 C17          7.6610    17.1820    53.2150 ca         1 PEN      -0.126000
     18 H18          6.6350    18.2940    51.9060 ha         1 PEN       0.132000
     19 C19          9.8370    16.4240    52.4850 ca         1 PEN      -0.118000
     20 C20         12.2570    18.4040    45.7820 ca         1 PEN      -0.107000
     21 C21         10.8300    19.7880    44.3550 ca         1 PEN      -0.032000
     22 H22          9.0570    20.3020    45.1930 ha         1 PEN       0.134000
     23 C23          8.8790    16.4680    53.4440 ca         1 PEN      -0.126000
     24 H24          6.9950    17.2050    53.8910 ha         1 PEN       0.132000
     25 H25         10.6390    15.9430    52.6510 ha         1 PEN       0.132000
     26 H26         13.0710    17.9360    45.9260 ha         1 PEN       0.134000
     27 C27         12.0610    19.0630    44.5810 ca         1 PEN      -0.032000
     28 C28         10.6590    20.4470    43.1010 ca         1 PEN      -0.118000
     29 H29          9.0180    16.0220    54.2720 ha         1 PEN       0.132000
     30 C30         13.0450    19.0460    43.5440 ca         1 PEN      -0.118000
     31 C31         11.6160    20.4040    42.1420 ca         1 PEN      -0.126000
     32 H32          9.8560    20.9280    42.9350 ha         1 PEN       0.132000
     33 C33         12.8340    19.6900    42.3710 ca         1 PEN      -0.126000
     34 H34         13.8600    18.5770    43.6800 ha         1 PEN       0.132000
     35 H35         11.4780    20.8490    41.3140 ha         1 PEN       0.132000
     36 H36         13.5010    19.6670    41.6950 ha         1 PEN       0.132000
@<TRIPOS>BOND
     1     1     2 ar  
     2     1     3 ar  
     3     1     4 ar  
     4     2     5 ar  
     5     2     6 1   
     6     3     7 ar  
     7     3     8 ar  
     8     4     9 ar  
     9     4    10 1   
    10     5    11 ar  
    11     5    12 ar  
    12     7    12 ar  
    13     7    13 1   
    14     8    14 1   
    15     8    15 ar  
    16     9    15 ar  
    17     9    16 ar  
    18    11    17 ar  
    19    11    18 1   
    20    12    19 ar  
    21    15    20 ar  
    22    16    21 ar  
    23    16    22 1   
    24    17    23 ar  
    25    17    24 1   
    26    19    23 ar  
    27    19    25 1   
    28    20    26 1   
    29    20    27 ar  
    30    21    27 ar  
    31    21    28 ar  
    32    23    29 1   
    33    27    30 ar  
    34    28    31 ar  
    35    28    32 1   
    36    30    33 ar  
    37    30    34 1   
    38    31    33 ar  
    39    31    35 1   
    40    33    36 1   
@<TRIPOS>SUBSTRUCTURE
     1 PEN         1 TEMP              0 ****  ****    0 ROOT
