@<TRIPOS>MOLECULE
VG3
   77    81     1     0     0
SMALL
bcc


@<TRIPOS>ATOM
      1 C1           8.5590     0.8550    -0.1840 ca         1 VG3      -0.148000
      2 C2           7.1880     0.6150    -0.1210 ca         1 VG3       0.010800
      3 C3           6.6640    -0.6780    -0.0240 ca         1 VG3      -0.146300
      4 C4           7.5110    -1.7650     0.0090 ca         1 VG3      -0.024000
      5 C5           8.9010    -1.5520    -0.0530 ca         1 VG3      -0.136600
      6 C6           9.4080    -0.2480    -0.1480 ca         1 VG3      -0.034000
      7 C7           5.1480    -0.6050     0.0290 c5         1 VG3      -0.058000
      8 C8           4.9230     0.9130    -0.0510 ce         1 VG3       0.398600
      9 N1           6.1300     1.5350    -0.1370 nh         1 VG3      -0.160200
     10 C9           3.7330     1.6340    -0.0400 ce         1 VG3      -0.402600
     11 C10          2.4530     1.0770     0.0480 cf         1 VG3       0.091000
     12 C11          1.2520     1.7920     0.0720 cf         1 VG3      -0.221200
     13 C12         -0.0000     1.1440     0.1150 ce         1 VG3       0.232400
     14 C13         -1.2520     1.7930     0.0720 ce         1 VG3      -0.221200
     15 C14         -1.2560     3.3110     0.0190 c6         1 VG3      -0.027200
     16 C15          0.0000     3.9150     0.6410 c6         1 VG3      -0.081400
     17 C16          1.2560     3.3110     0.0190 c6         1 VG3      -0.027200
     18 C17         -2.4530     1.0770     0.0480 cf         1 VG3       0.091000
     19 C18         -3.7330     1.6340    -0.0400 cf         1 VG3      -0.316000
     20 C19         -4.9230     0.9130    -0.0510 c2         1 VG3       0.259800
     21 N2          -6.1300     1.5350    -0.1370 nh         1 VG3      -0.491800
     22 C20         -7.1880     0.6150    -0.1210 ca         1 VG3       0.137600
     23 C21         -6.6640    -0.6780    -0.0240 ca         1 VG3      -0.146300
     24 C22         -5.1480    -0.6050     0.0300 c5         1 VG3       0.021500
     25 C23         -8.5590     0.8550    -0.1840 ca         1 VG3      -0.148000
     26 C24         -9.4080    -0.2480    -0.1480 ca         1 VG3      -0.034000
     27 C25         -8.9010    -1.5520    -0.0530 ca         1 VG3      -0.136600
     28 C26         -7.5110    -1.7650     0.0090 ca         1 VG3      -0.024000
     29 H1         -10.4770    -0.0930    -0.1950 ha         1 VG3       0.175000
     30 C27         -6.3030     2.9830    -0.2310 c3         1 VG3       0.188100
     31 C28         -4.5340    -1.3440    -1.1840 c3         1 VG3      -0.087100
     32 Cl1         -0.0000    -0.6320     0.2080 cl         1 VG3      -0.088400
     33 C29          6.3030     2.9830    -0.2310 c3         1 VG3       0.010600
     34 C30          4.6310    -1.1920     1.3660 c3         1 VG3      -0.087100
     35 H2          10.4770    -0.0930    -0.1950 ha         1 VG3       0.175000
     36 H3          -3.4450    -1.2920    -1.1800 hc         1 VG3       0.057200
     37 H4          -4.8970    -0.9230    -2.1240 hc         1 VG3       0.057200
     38 H5          -4.8210    -2.3970    -1.1470 hc         1 VG3       0.057200
     39 H6          -8.9700     1.8530    -0.2570 ha         1 VG3       0.157000
     40 C31         -9.7910    -2.7350    -0.0150 c          1 VG3       0.648700
     41 H7          -7.1360    -2.7790     0.0820 ha         1 VG3       0.174000
     42 H8          -7.3610     3.2150    -0.3030 h1         1 VG3       0.069700
     43 H9          -5.7990     3.3650    -1.1200 h1         1 VG3       0.069700
     44 H10         -5.8960     3.4700     0.6570 h1         1 VG3       0.069700
     45 H11         -3.8200     2.7100    -0.1070 ha         1 VG3       0.153000
     46 H12         -2.3730     0.0020     0.0920 ha         1 VG3       0.139000
     47 H13          0.0000     3.7250     1.7200 hc         1 VG3       0.058200
     48 H14          1.3460     3.6350    -1.0260 hc         1 VG3       0.056200
     49 H15         -1.3460     3.6350    -1.0260 hc         1 VG3       0.056200
     50 H16          0.0000     4.9990     0.5050 hc         1 VG3       0.058200
     51 H17          2.1370     3.6910     0.5390 hc         1 VG3       0.056200
     52 H18         -2.1370     3.6910     0.5390 hc         1 VG3       0.056200
     53 H19          2.3730     0.0020     0.0920 ha         1 VG3       0.139000
     54 H20          3.8200     2.7100    -0.1070 ha         1 VG3       0.153000
     55 H21          3.5440    -1.1440     1.4350 hc         1 VG3       0.057200
     56 H22          5.0550    -0.6570     2.2180 hc         1 VG3       0.057200
     57 H23          4.9270    -2.2410     1.4380 hc         1 VG3       0.057200
     58 H24          7.1360    -2.7790     0.0820 ha         1 VG3       0.174000
     59 H25          8.9700     1.8530    -0.2570 ha         1 VG3       0.157000
     60 C32          9.7910    -2.7350    -0.0150 c          1 VG3       0.648700
     61 H26          7.3610     3.2150    -0.3030 h1         1 VG3       0.069700
     62 H27          5.7990     3.3650    -1.1200 h1         1 VG3       0.069700
     63 H28          5.8960     3.4700     0.6570 h1         1 VG3       0.069700
     64 C33         -4.6320    -1.1920     1.3660 c3         1 VG3      -0.087100
     65 H29         -3.5450    -1.1430     1.4350 hc         1 VG3       0.057200
     66 H30         -5.0560    -0.6570     2.2190 hc         1 VG3       0.057200
     67 H31         -4.9280    -2.2410     1.4380 hc         1 VG3       0.057200
     68 O1         -11.1040    -2.4190    -0.0760 oh         1 VG3      -0.601100
     69 O2          -9.4100    -3.8860     0.0630 o          1 VG3      -0.537000
     70 H32        -11.6100    -3.2460    -0.0460 ho         1 VG3       0.459000
     71 C34          4.5340    -1.3440    -1.1840 c3         1 VG3      -0.087100
     72 H33          4.8210    -2.3970    -1.1480 hc         1 VG3       0.057200
     73 H34          3.4450    -1.2920    -1.1810 hc         1 VG3       0.057200
     74 H35          4.8970    -0.9230    -2.1240 hc         1 VG3       0.057200
     75 O3          11.1040    -2.4190    -0.0760 oh         1 VG3      -0.601100
     76 O4           9.4100    -3.8860     0.0640 o          1 VG3      -0.537000
     77 H36         11.6100    -3.2460    -0.0450 ho         1 VG3       0.459000
@<TRIPOS>BOND
     1     1     2 ar  
     2     1     6 ar  
     3     1    59 1   
     4     2     3 ar  
     5     2     9 1   
     6     3     4 ar  
     7     3     7 1   
     8     4     5 ar  
     9     4    58 1   
    10     5     6 ar  
    11     5    60 1   
    12     6    35 1   
    13     7     8 1   
    14     7    34 1   
    15     7    71 1   
    16     8     9 2   
    17     8    10 1   
    18     9    33 1   
    19    10    11 2   
    20    10    54 1   
    21    11    12 1   
    22    11    53 1   
    23    12    13 2   
    24    12    17 1   
    25    13    14 1   
    26    13    32 1   
    27    14    15 1   
    28    14    18 2   
    29    15    16 1   
    30    15    49 1   
    31    15    52 1   
    32    16    17 1   
    33    16    47 1   
    34    16    50 1   
    35    17    48 1   
    36    17    51 1   
    37    18    19 1   
    38    18    46 1   
    39    19    20 2   
    40    19    45 1   
    41    20    21 1   
    42    20    24 1   
    43    21    22 1   
    44    21    30 1   
    45    22    23 ar  
    46    22    25 ar  
    47    23    24 1   
    48    23    28 ar  
    49    24    31 1   
    50    24    64 1   
    51    25    26 ar  
    52    25    39 1   
    53    26    27 ar  
    54    26    29 1   
    55    27    28 ar  
    56    27    40 1   
    57    28    41 1   
    58    30    42 1   
    59    30    43 1   
    60    30    44 1   
    61    31    36 1   
    62    31    37 1   
    63    31    38 1   
    64    33    61 1   
    65    33    62 1   
    66    33    63 1   
    67    34    55 1   
    68    34    56 1   
    69    34    57 1   
    70    40    68 1   
    71    40    69 2   
    72    60    75 1   
    73    60    76 2   
    74    64    65 1   
    75    64    66 1   
    76    64    67 1   
    77    68    70 1   
    78    71    72 1   
    79    71    73 1   
    80    71    74 1   
    81    75    77 1   
@<TRIPOS>SUBSTRUCTURE
     1 VG3         1 TEMP              0 ****  ****    0 ROOT
