@<TRIPOS>MOLECULE
PIC
 36 40 1 0 0
SMALL
USER_CHARGES


@<TRIPOS>ATOM
      1 C1          7.2952    7.2580    9.4224 C.ar        1 PIC         0.0000
      2 C2          8.0318    6.2081    9.9913 C.ar        1 PIC         0.0000
      3 C3          6.8963    8.2999   10.3116 C.ar        1 PIC         0.0000
      4 C4          6.9172    7.3201    8.0155 C.ar        1 PIC         0.0000
      5 C5          8.3336    6.2137   11.3671 C.ar        1 PIC         0.0000
      6 H6          8.3615    5.3939    9.3710 H           1 PIC         0.0000
      7 C7          7.1572    8.2752   11.7090 C.ar        1 PIC         0.0000
      8 C8          6.1588    9.3417    9.7481 C.ar        1 PIC         0.0000
      9 C9          6.1869    8.3885    7.5154 C.ar        1 PIC         0.0000
     10 C10         7.3465    6.2641    7.1452 C.ar        1 PIC         0.0000
     11 C11         7.8752    7.2057   12.1726 C.ar        1 PIC         0.0000
     12 H12         8.9416    5.4161   11.7928 H           1 PIC         0.0000
     13 H13         6.8059    9.0427   12.3793 H           1 PIC         0.0000
     14 C14         5.8489    9.4310    8.4182 C.ar        1 PIC         0.0000
     15 H15         5.8008   10.1381   10.4022 H           1 PIC         0.0000
     16 C16         5.8342    8.4008    6.1302 C.ar        1 PIC         0.0000
     17 C17         6.9877    6.2457    5.7856 C.ar        1 PIC         0.0000
     18 H18         7.9556    5.4690    7.5384 H           1 PIC         0.0000
     19 H19         8.0855    7.1521   13.2213 H           1 PIC         0.0000
     20 H20         5.3388   10.3165    8.0520 H           1 PIC         0.0000
     21 C21         6.2334    7.3571    5.3072 C.ar        1 PIC         0.0000
     22 C22         5.0923    9.4636    5.5896 C.ar        1 PIC         0.0000
     23 H23         7.2779    5.4266    5.1315 H           1 PIC         0.0000
     24 C24         5.8285    7.3829    3.8854 C.ar        1 PIC         0.0000
     25 C25         4.7315    9.5036    4.2733 C.ar        1 PIC         0.0000
     26 H26         4.7911   10.2673    6.2383 H           1 PIC         0.0000
     27 C27         5.0719    8.4476    3.3786 C.ar        1 PIC         0.0000
     28 C28         6.1782    6.3798    2.9989 C.ar        1 PIC         0.0000
     29 H29         4.1611   10.3485    3.9098 H           1 PIC         0.0000
     30 C30         4.6553    8.5276    2.0380 C.ar        1 PIC         0.0000
     31 C31         5.7616    6.4420    1.6542 C.ar        1 PIC         0.0000
     32 H32         6.7929    5.5558    3.3313 H           1 PIC         0.0000
     33 C33         5.0155    7.5048    1.2082 C.ar        1 PIC         0.0000
     34 H34         4.0739    9.3645    1.6772 H           1 PIC         0.0000
     35 H35         6.0206    5.6407    0.9812 H           1 PIC         0.0000
     36 H36         4.7169    7.5368    0.1757 H           1 PIC         0.0000
@<TRIPOS>BOND
     1    1    2     ar
     2    1    3     ar
     3    1    4     ar
     4    2    5     ar
     5    2    6     1
     6    3    7     ar
     7    3    8     ar
     8    4    9     ar
     9    4   10     ar
    10    5   11     ar
    11    5   12     1
    12    7   11     ar
    13    7   13     1
    14    8   14     ar
    15    8   15     1
    16    9   14     ar
    17    9   16     ar
    18   10   17     ar
    19   10   18     1
    20   11   19     1
    21   14   20     1
    22   16   21     ar
    23   16   22     ar
    24   17   21     ar
    25   17   23     1
    26   21   24     ar
    27   22   25     ar
    28   22   26     1
    29   24   27     ar
    30   24   28     ar
    31   25   27     ar
    32   25   29     1
    33   27   30     ar
    34   28   31     ar
    35   28   32     1
    36   30   33     ar
    37   30   34     1
    38   31   33     ar
    39   31   35     1
    40   33   36     1
@<TRIPOS>SUBSTRUCTURE
     1 PIC             1 TEMP              0 ****  ****    0 ROOT
